<?xml version="1.0" encoding="UTF-8"?>
<connections  version="1.3">
  <connection  tls="0" from="-120634989" fromLane="1" to="132106763#5" toLane="1" pass="0" keepClear="1" contPos="0.0" uncontrolled="0"/>
  <connection  tls="0" from="-120634989" fromLane="1" to="23296321" toLane="1" pass="0" keepClear="1" contPos="0.0" uncontrolled="0"/>
  <connection  tls="0" from="-120634989" fromLane="1" to="-132106763#3" toLane="1" pass="0" keepClear="1" contPos="0.0" uncontrolled="0"/>
  <connection  tls="0" from="-132106761#0" fromLane="1" to="132106763#0" toLane="1" pass="0" keepClear="1" contPos="0.0" uncontrolled="0"/>
  <connection  tls="0" from="-132106761#1" fromLane="1" to="23587375#0" toLane="1" pass="0" keepClear="1" contPos="0.0" uncontrolled="0"/>
  <connection  tls="0" from="-132106761#1" fromLane="1" to="-132106761#0" toLane="1" pass="0" keepClear="1" contPos="0.0" uncontrolled="0"/>
  <connection  tls="0" from="-132106761#1" fromLane="1" to="23587376#0" toLane="1" pass="0" keepClear="1" contPos="0.0" uncontrolled="0"/>
  <connection  tls="0" from="-132106761#2" fromLane="1" to="-132106761#1" toLane="1" pass="0" keepClear="1" contPos="0.0" uncontrolled="0"/>
  <connection  tls="0" from="-132106763#0" fromLane="1" to="132106761#0" toLane="1" pass="0" keepClear="1" contPos="0.0" uncontrolled="0"/>
  <connection  tls="0" from="-132106763#0" fromLane="1" to="132106761#0" toLane="2" pass="0" keepClear="1" contPos="0.0" uncontrolled="0"/>
  <connection  tls="0" from="-132106763#1" fromLane="1" to="74162533#2" toLane="0" pass="0" keepClear="1" contPos="0.0" uncontrolled="0"/>
  <connection  tls="0" from="-132106763#1" fromLane="1" to="-132106763#0" toLane="1" pass="0" keepClear="1" contPos="0.0" uncontrolled="0"/>
  <connection  tls="0" from="-132106763#2" fromLane="1" to="-132106763#1" toLane="1" pass="0" keepClear="1" contPos="0.0" uncontrolled="0"/>
  <connection  tls="0" from="-132106763#3" fromLane="1" to="-132106763#2" toLane="1" pass="0" keepClear="1" contPos="0.0" uncontrolled="0"/>
  <connection  tls="0" from="-132106763#5" fromLane="1" to="23296321" toLane="1" pass="0" keepClear="1" contPos="0.0" uncontrolled="0"/>
  <connection  tls="0" from="-132106763#5" fromLane="1" to="-132106763#3" toLane="1" pass="0" keepClear="1" contPos="0.0" uncontrolled="0"/>
  <connection  tls="0" from="-132106763#5" fromLane="1" to="120634989" toLane="1" pass="0" keepClear="1" contPos="0.0" uncontrolled="0"/>
  <connection  tls="0" from="-150052400#0" fromLane="1" to="-49403726#3" toLane="1" pass="0" keepClear="1" contPos="0.0" uncontrolled="0"/>
  <connection  tls="0" from="-150052400#0" fromLane="1" to="-23296246" toLane="1" pass="0" keepClear="1" contPos="0.0" uncontrolled="0"/>
  <connection  tls="0" from="-150052400#0" fromLane="1" to="150052413#0" toLane="1" pass="0" keepClear="1" contPos="0.0" uncontrolled="0"/>
  <connection  tls="0" from="-150052400#1" fromLane="1" to="-150052400#0" toLane="1" pass="0" keepClear="1" contPos="0.0" uncontrolled="0"/>
  <connection  tls="0" from="-150052400#1" fromLane="1" to="-23296296#3" toLane="1" pass="0" keepClear="1" contPos="0.0" uncontrolled="0"/>
  <connection  tls="0" from="-150052400#2" fromLane="1" to="-74162605#0" toLane="0" pass="0" keepClear="1" contPos="0.0" uncontrolled="0"/>
  <connection  tls="0" from="-150052400#2" fromLane="1" to="-150052400#1" toLane="1" pass="0" keepClear="1" contPos="0.0" uncontrolled="0"/>
  <connection  tls="0" from="-150052400#2" fromLane="1" to="74162605#1" toLane="0" pass="0" keepClear="1" contPos="0.0" uncontrolled="0"/>
  <connection  tls="0" from="-150052402#0" fromLane="1" to="-132106761#2" toLane="1" pass="0" keepClear="1" contPos="0.0" uncontrolled="0"/>
  <connection  tls="0" from="-150052402#0" fromLane="1" to="-150052400#2" toLane="1" pass="0" keepClear="1" contPos="0.0" uncontrolled="0"/>
  <connection  tls="0" from="-150052402#0" fromLane="1" to="253832442#0" toLane="2" pass="0" keepClear="1" contPos="0.0" uncontrolled="0"/>
  <connection  tls="0" from="-150052402#1" fromLane="1" to="23296318#0" toLane="1" pass="0" keepClear="1" contPos="0.0" uncontrolled="0"/>
  <connection  tls="0" from="-150052402#1" fromLane="1" to="-150052402#0" toLane="1" pass="0" keepClear="1" contPos="0.0" uncontrolled="0"/>
  <connection  tls="0" from="-150052402#2" fromLane="1" to="-150052402#1" toLane="1" pass="0" keepClear="1" contPos="0.0" uncontrolled="0"/>
  <connection  tls="0" from="-150052413#0" fromLane="1" to="150052400#0" toLane="1" pass="0" keepClear="1" contPos="0.0" uncontrolled="0"/>
  <connection  tls="0" from="-150052413#0" fromLane="1" to="-49403726#3" toLane="1" pass="0" keepClear="1" contPos="0.0" uncontrolled="0"/>
  <connection  tls="0" from="-150052413#0" fromLane="1" to="-23296246" toLane="1" pass="0" keepClear="1" contPos="0.0" uncontrolled="0"/>
  <connection  tls="0" from="-150052413#1" fromLane="1" to="-150052413#0" toLane="1" pass="0" keepClear="1" contPos="0.0" uncontrolled="0"/>
  <connection  tls="0" from="-170939103" fromLane="1" to="139762405#1" toLane="1" pass="0" keepClear="1" contPos="0.0" uncontrolled="0"/>
  <connection  tls="0" from="-23296246" fromLane="1" to="23296246" toLane="1" pass="0" keepClear="1" contPos="0.0" uncontrolled="0"/>
  <connection  tls="0" from="-23296296#0" fromLane="1" to="23296227#1" toLane="1" pass="0" keepClear="1" contPos="0.0" uncontrolled="0"/>
  <connection  tls="0" from="-23296296#1" fromLane="1" to="74162605#4" toLane="0" pass="0" keepClear="1" contPos="0.0" uncontrolled="0"/>
  <connection  tls="0" from="-23296296#1" fromLane="1" to="-23296296#0" toLane="1" pass="0" keepClear="1" contPos="0.0" uncontrolled="0"/>
  <connection  tls="0" from="-23296296#1" fromLane="1" to="-74162605#3" toLane="0" pass="0" keepClear="1" contPos="0.0" uncontrolled="0"/>
  <connection  tls="0" from="-23296296#2" fromLane="1" to="336078054" toLane="1" pass="0" keepClear="1" contPos="0.0" uncontrolled="0"/>
  <connection  tls="0" from="-23296296#2" fromLane="1" to="-23296296#1" toLane="1" pass="0" keepClear="1" contPos="0.0" uncontrolled="0"/>
  <connection  tls="0" from="-23296296#2" fromLane="1" to="336078058#0" toLane="1" pass="0" keepClear="1" contPos="0.0" uncontrolled="0"/>
  <connection  tls="0" from="-23296296#3" fromLane="1" to="-23296296#2" toLane="1" pass="0" keepClear="1" contPos="0.0" uncontrolled="0"/>
  <connection  tls="0" from="-23296321" fromLane="1" to="-132106763#3" toLane="1" pass="0" keepClear="1" contPos="0.0" uncontrolled="0"/>
  <connection  tls="0" from="-23296321" fromLane="1" to="120634989" toLane="1" pass="0" keepClear="1" contPos="0.0" uncontrolled="0"/>
  <connection  tls="0" from="-23296321" fromLane="1" to="132106763#5" toLane="1" pass="0" keepClear="1" contPos="0.0" uncontrolled="0"/>
  <connection  tls="0" from="-23587376#0" fromLane="1" to="132106761#1" toLane="1" pass="0" keepClear="1" contPos="0.0" uncontrolled="0"/>
  <connection  tls="0" from="-23587376#0" fromLane="1" to="23587375#0" toLane="1" pass="0" keepClear="1" contPos="0.0" uncontrolled="0"/>
  <connection  tls="0" from="-23587376#0" fromLane="1" to="-132106761#0" toLane="1" pass="0" keepClear="1" contPos="0.0" uncontrolled="0"/>
  <connection  tls="0" from="-23587376#1" fromLane="1" to="376877307#1" toLane="0" pass="0" keepClear="1" contPos="0.0" uncontrolled="0"/>
  <connection  tls="0" from="-23587376#1" fromLane="1" to="-23587376#0" toLane="1" pass="0" keepClear="1" contPos="0.0" uncontrolled="0"/>
  <connection  tls="0" from="-27472833" fromLane="1" to="346004298#1" toLane="1" pass="0" keepClear="1" contPos="0.0" uncontrolled="0"/>
  <connection  tls="0" from="-27472833" fromLane="1" to="-346004298#0" toLane="1" pass="0" keepClear="1" contPos="0.0" uncontrolled="0"/>
  <connection  tls="0" from="-30635860" fromLane="1" to="346004298#0" toLane="1" pass="0" keepClear="1" contPos="0.0" uncontrolled="0"/>
  <connection  tls="0" from="-30635860" fromLane="1" to="-150052402#2" toLane="1" pass="0" keepClear="1" contPos="0.0" uncontrolled="0"/>
  <connection  tls="0" from="-30635860" fromLane="1" to="-346004297" toLane="1" pass="0" keepClear="1" contPos="0.0" uncontrolled="0"/>
  <connection  tls="0" from="-346004296#0" fromLane="1" to="346004296#0" toLane="3" pass="0" keepClear="1" contPos="0.0" uncontrolled="0"/>
  <connection  tls="0" from="-346004296#1" fromLane="1" to="120634988#0" toLane="1" pass="0" keepClear="1" contPos="0.0" uncontrolled="0"/>
  <connection  tls="0" from="-346004296#1" fromLane="1" to="-346004296#0" toLane="1" pass="0" keepClear="1" contPos="0.0" uncontrolled="0"/>
  <connection  tls="0" from="-346004297" fromLane="1" to="23296309" toLane="1" pass="0" keepClear="1" contPos="0.0" uncontrolled="0"/>
  <connection  tls="0" from="-346004297" fromLane="1" to="-346004296#1" toLane="1" pass="0" keepClear="1" contPos="0.0" uncontrolled="0"/>
  <connection  tls="0" from="-346004297" fromLane="1" to="27381994" toLane="1" pass="0" keepClear="1" contPos="0.0" uncontrolled="0"/>
  <connection  tls="0" from="-346004298#0" fromLane="1" to="-150052402#2" toLane="1" pass="0" keepClear="1" contPos="0.0" uncontrolled="0"/>
  <connection  tls="0" from="-346004298#0" fromLane="1" to="-346004297" toLane="1" pass="0" keepClear="1" contPos="0.0" uncontrolled="0"/>
  <connection  tls="0" from="-346004298#0" fromLane="1" to="30635860" toLane="1" pass="0" keepClear="1" contPos="0.0" uncontrolled="0"/>
  <connection  tls="0" from="-346004298#1" fromLane="1" to="-346004298#0" toLane="1" pass="0" keepClear="1" contPos="0.0" uncontrolled="0"/>
  <connection  tls="0" from="-346004298#1" fromLane="1" to="27472833" toLane="1" pass="0" keepClear="1" contPos="0.0" uncontrolled="0"/>
  <connection  tls="0" from="-346004298#2" fromLane="1" to="120634986#0" toLane="1" pass="0" keepClear="1" contPos="0.0" uncontrolled="0"/>
  <connection  tls="0" from="-346004298#2" fromLane="1" to="-346004298#1" toLane="1" pass="0" keepClear="1" contPos="0.0" uncontrolled="0"/>
  <connection  tls="0" from="-49403726#0" fromLane="1" to="49403726#0" toLane="1" pass="0" keepClear="1" contPos="0.0" uncontrolled="0"/>
  <connection  tls="0" from="-49403726#1" fromLane="1" to="-49403726#0" toLane="1" pass="0" keepClear="1" contPos="0.0" uncontrolled="0"/>
  <connection  tls="0" from="-49403726#2" fromLane="1" to="-49403726#1" toLane="1" pass="0" keepClear="1" contPos="0.0" uncontrolled="0"/>
  <connection  tls="0" from="-49403726#3" fromLane="1" to="-23587376#1" toLane="1" pass="0" keepClear="1" contPos="0.0" uncontrolled="0"/>
  <connection  tls="0" from="-49403726#3" fromLane="1" to="-49403726#2" toLane="1" pass="0" keepClear="1" contPos="0.0" uncontrolled="0"/>
  <connection  tls="0" from="-74162560#0" fromLane="0" to="74162605#0" toLane="0" pass="0" keepClear="1" contPos="0.0" uncontrolled="0"/>
  <connection  tls="0" from="-74162560#1" fromLane="0" to="-74162560#0" toLane="0" pass="0" keepClear="1" contPos="0.0" uncontrolled="0"/>
  <connection  tls="0" from="-74162560#1" fromLane="0" to="132106761#2" toLane="2" pass="0" keepClear="1" contPos="0.0" uncontrolled="0"/>
  <connection  tls="0" from="-74162605#0" fromLane="0" to="74162560#0" toLane="0" pass="0" keepClear="1" contPos="0.0" uncontrolled="0"/>
  <connection  tls="0" from="-74162605#1" fromLane="0" to="150052400#2" toLane="1" pass="0" keepClear="1" contPos="0.0" uncontrolled="0"/>
  <connection  tls="0" from="-74162605#1" fromLane="0" to="-74162605#0" toLane="0" pass="0" keepClear="1" contPos="0.0" uncontrolled="0"/>
  <connection  tls="0" from="-74162605#1" fromLane="0" to="-150052400#1" toLane="1" pass="0" keepClear="1" contPos="0.0" uncontrolled="0"/>
  <connection  tls="0" from="-74162605#2" fromLane="0" to="-74162605#1" toLane="0" pass="0" keepClear="1" contPos="0.0" uncontrolled="0"/>
  <connection  tls="0" from="-74162605#2" fromLane="0" to="23296299#1" toLane="1" pass="0" keepClear="1" contPos="0.0" uncontrolled="0"/>
  <connection  tls="0" from="-74162605#3" fromLane="0" to="336078058#1" toLane="1" pass="0" keepClear="1" contPos="0.0" uncontrolled="0"/>
  <connection  tls="0" from="-74162605#3" fromLane="0" to="-74162605#2" toLane="0" pass="0" keepClear="1" contPos="0.0" uncontrolled="0"/>
  <connection  tls="0" from="-74162605#4" fromLane="0" to="-23296296#0" toLane="1" pass="0" keepClear="1" contPos="0.0" uncontrolled="0"/>
  <connection  tls="0" from="-74162605#4" fromLane="0" to="-74162605#3" toLane="0" pass="0" keepClear="1" contPos="0.0" uncontrolled="0"/>
  <connection  tls="0" from="-74162605#4" fromLane="0" to="23296296#1" toLane="1" pass="0" keepClear="1" contPos="0.0" uncontrolled="0"/>
  <connection  tls="0" from="120634986#0" fromLane="1" to="-120634989" toLane="1" pass="0" keepClear="1" contPos="0.0" uncontrolled="0"/>
  <connection  tls="0" from="120634986#0" fromLane="1" to="120634986#1" toLane="1" pass="0" keepClear="1" contPos="0.0" uncontrolled="0"/>
  <connection  tls="0" from="120634986#1" fromLane="1" to="32064553" toLane="1" pass="0" keepClear="1" contPos="0.0" uncontrolled="0"/>
  <connection  tls="0" from="120634986#1" fromLane="1" to="140279532" toLane="1" pass="0" keepClear="1" contPos="0.0" uncontrolled="0"/>
  <connection  tls="0" from="120634986#1" fromLane="1" to="120634987" toLane="1" pass="0" keepClear="1" contPos="0.0" uncontrolled="0"/>
  <connection  tls="0" from="120634987" fromLane="1" to="-150052402#1" toLane="1" pass="0" keepClear="1" contPos="0.0" uncontrolled="0"/>
  <connection  tls="0" from="120634987" fromLane="1" to="150052402#2" toLane="1" pass="0" keepClear="1" contPos="0.0" uncontrolled="0"/>
  <connection  tls="0" from="120634988#0" fromLane="1" to="120634988#1" toLane="1" pass="0" keepClear="1" contPos="0.0" uncontrolled="0"/>
  <connection  tls="0" from="120634988#0" fromLane="1" to="139762405#0" toLane="1" pass="0" keepClear="1" contPos="0.0" uncontrolled="0"/>
  <connection  tls="0" from="120634988#1" fromLane="1" to="120634988#3" toLane="1" pass="0" keepClear="1" contPos="0.0" uncontrolled="0"/>
  <connection  tls="0" from="120634988#3" fromLane="1" to="150052402#2" toLane="1" pass="0" keepClear="1" contPos="0.0" uncontrolled="0"/>
  <connection  tls="0" from="120634988#3" fromLane="1" to="-150052402#1" toLane="1" pass="0" keepClear="1" contPos="0.0" uncontrolled="0"/>
  <connection  tls="0" from="120634989" fromLane="1" to="120634986#1" toLane="1" pass="0" keepClear="1" contPos="0.0" uncontrolled="0"/>
  <connection  tls="0" from="132106761#0" fromLane="1" to="23587376#0" toLane="1" pass="0" keepClear="1" contPos="0.0" uncontrolled="0"/>
  <connection  tls="0" from="132106761#0" fromLane="1" to="132106761#1" toLane="1" pass="0" keepClear="1" contPos="0.0" uncontrolled="0"/>
  <connection  tls="0" from="132106761#0" fromLane="2" to="132106761#1" toLane="2" pass="0" keepClear="1" contPos="0.0" uncontrolled="0"/>
  <connection  tls="0" from="132106761#0" fromLane="2" to="23587375#0" toLane="1" pass="0" keepClear="1" contPos="0.0" uncontrolled="0"/>
  <connection  tls="0" from="132106761#1" fromLane="1" to="-74162560#0" toLane="0" pass="0" keepClear="1" contPos="0.0" uncontrolled="0"/>
  <connection  tls="0" from="132106761#1" fromLane="1" to="132106761#2" toLane="1" pass="0" keepClear="1" contPos="0.0" uncontrolled="0"/>
  <connection  tls="0" from="132106761#1" fromLane="2" to="132106761#2" toLane="2" pass="0" keepClear="1" contPos="0.0" uncontrolled="0"/>
  <connection  tls="0" from="132106761#1" fromLane="2" to="74162560#1" toLane="0" pass="0" keepClear="1" contPos="0.0" uncontrolled="0"/>
  <connection  tls="0" from="132106761#2" fromLane="1" to="-150052400#2" toLane="1" pass="0" keepClear="1" contPos="0.0" uncontrolled="0"/>
  <connection  tls="0" from="132106761#2" fromLane="1" to="253832442#0" toLane="1" pass="0" keepClear="1" contPos="0.0" uncontrolled="0"/>
  <connection  tls="0" from="132106761#2" fromLane="2" to="253832442#0" toLane="2" pass="0" keepClear="1" contPos="0.0" uncontrolled="0"/>
  <connection  tls="0" from="132106761#2" fromLane="2" to="150052402#0" toLane="1" pass="0" keepClear="1" contPos="0.0" uncontrolled="0"/>
  <connection  tls="0" from="132106763#0" fromLane="1" to="132106763#1" toLane="1" pass="0" keepClear="1" contPos="0.0" uncontrolled="0"/>
  <connection  tls="0" from="132106763#0" fromLane="1" to="74162533#2" toLane="0" pass="0" keepClear="1" contPos="0.0" uncontrolled="0"/>
  <connection  tls="0" from="132106763#1" fromLane="1" to="132106763#2" toLane="1" pass="0" keepClear="1" contPos="0.0" uncontrolled="0"/>
  <connection  tls="0" from="132106763#2" fromLane="1" to="132106763#3" toLane="1" pass="0" keepClear="1" contPos="0.0" uncontrolled="0"/>
  <connection  tls="0" from="132106763#3" fromLane="1" to="120634989" toLane="1" pass="0" keepClear="1" contPos="0.0" uncontrolled="0"/>
  <connection  tls="0" from="132106763#3" fromLane="1" to="132106763#5" toLane="1" pass="0" keepClear="1" contPos="0.0" uncontrolled="0"/>
  <connection  tls="0" from="132106763#3" fromLane="1" to="23296321" toLane="1" pass="0" keepClear="1" contPos="0.0" uncontrolled="0"/>
  <connection  tls="0" from="132106763#5" fromLane="1" to="-132106763#5" toLane="1" pass="0" keepClear="1" contPos="0.0" uncontrolled="0"/>
  <connection  tls="0" from="139762405#0" fromLane="1" to="139762405#1" toLane="1" pass="0" keepClear="1" contPos="0.0" uncontrolled="0"/>
  <connection  tls="0" from="139762405#0" fromLane="1" to="170939103" toLane="1" pass="0" keepClear="1" contPos="0.0" uncontrolled="0"/>
  <connection  tls="0" from="139762405#1" fromLane="1" to="23296227#0" toLane="2" pass="0" keepClear="1" contPos="0.0" uncontrolled="0"/>
  <connection  tls="0" from="140279532" fromLane="1" to="23296318#1" toLane="1" pass="0" keepClear="1" contPos="0.0" uncontrolled="0"/>
  <connection  tls="0" from="140279537" fromLane="1" to="120634988#3" toLane="1" pass="0" keepClear="1" contPos="0.0" uncontrolled="0"/>
  <connection  tls="0" from="150052400#0" fromLane="1" to="-23296296#3" toLane="1" pass="0" keepClear="1" contPos="0.0" uncontrolled="0"/>
  <connection  tls="0" from="150052400#0" fromLane="1" to="150052400#1" toLane="1" pass="0" keepClear="1" contPos="0.0" uncontrolled="0"/>
  <connection  tls="0" from="150052400#1" fromLane="1" to="74162605#1" toLane="0" pass="0" keepClear="1" contPos="0.0" uncontrolled="0"/>
  <connection  tls="0" from="150052400#1" fromLane="1" to="150052400#2" toLane="1" pass="0" keepClear="1" contPos="0.0" uncontrolled="0"/>
  <connection  tls="0" from="150052400#1" fromLane="1" to="-74162605#0" toLane="0" pass="0" keepClear="1" contPos="0.0" uncontrolled="0"/>
  <connection  tls="0" from="150052400#2" fromLane="1" to="253832442#0" toLane="1" pass="0" keepClear="1" contPos="0.0" uncontrolled="0"/>
  <connection  tls="0" from="150052400#2" fromLane="1" to="150052402#0" toLane="1" pass="0" keepClear="1" contPos="0.0" uncontrolled="0"/>
  <connection  tls="0" from="150052400#2" fromLane="1" to="-132106761#2" toLane="1" pass="0" keepClear="1" contPos="0.0" uncontrolled="0"/>
  <connection  tls="0" from="150052402#0" fromLane="1" to="150052402#1" toLane="1" pass="0" keepClear="1" contPos="0.0" uncontrolled="0"/>
  <connection  tls="0" from="150052402#0" fromLane="1" to="23296318#0" toLane="1" pass="0" keepClear="1" contPos="0.0" uncontrolled="0"/>
  <connection  tls="0" from="150052402#1" fromLane="1" to="150052402#2" toLane="1" pass="0" keepClear="1" contPos="0.0" uncontrolled="0"/>
  <connection  tls="0" from="150052402#2" fromLane="1" to="-346004297" toLane="1" pass="0" keepClear="1" contPos="0.0" uncontrolled="0"/>
  <connection  tls="0" from="150052402#2" fromLane="1" to="30635860" toLane="1" pass="0" keepClear="1" contPos="0.0" uncontrolled="0"/>
  <connection  tls="0" from="150052402#2" fromLane="1" to="346004298#0" toLane="3" pass="0" keepClear="1" contPos="0.0" uncontrolled="0"/>
  <connection  tls="0" from="150052413#0" fromLane="1" to="150052413#1" toLane="1" pass="0" keepClear="1" contPos="0.0" uncontrolled="0"/>
  <connection  tls="0" from="150052413#1" fromLane="1" to="-150052413#1" toLane="1" pass="0" keepClear="1" contPos="0.0" uncontrolled="0"/>
  <connection  tls="0" from="170939103" fromLane="1" to="-170939103" toLane="1" pass="0" keepClear="1" contPos="0.0" uncontrolled="0"/>
  <connection  tls="0" from="23296227#0" fromLane="1" to="23296296#0" toLane="1" pass="0" keepClear="1" contPos="0.0" uncontrolled="0"/>
  <connection  tls="0" from="23296227#0" fromLane="1" to="23296227#1" toLane="1" pass="0" keepClear="1" contPos="0.0" uncontrolled="0"/>
  <connection  tls="0" from="23296227#0" fromLane="2" to="23296227#1" toLane="2" pass="0" keepClear="1" contPos="0.0" uncontrolled="0"/>
  <connection  tls="0" from="23296246" fromLane="1" to="150052413#0" toLane="1" pass="0" keepClear="1" contPos="0.0" uncontrolled="0"/>
  <connection  tls="0" from="23296246" fromLane="1" to="150052400#0" toLane="1" pass="0" keepClear="1" contPos="0.0" uncontrolled="0"/>
  <connection  tls="0" from="23296246" fromLane="1" to="-49403726#3" toLane="1" pass="0" keepClear="1" contPos="0.0" uncontrolled="0"/>
  <connection  tls="0" from="23296296#0" fromLane="1" to="-74162605#3" toLane="0" pass="0" keepClear="1" contPos="0.0" uncontrolled="0"/>
  <connection  tls="0" from="23296296#0" fromLane="1" to="23296296#1" toLane="1" pass="0" keepClear="1" contPos="0.0" uncontrolled="0"/>
  <connection  tls="0" from="23296296#0" fromLane="1" to="74162605#4" toLane="0" pass="0" keepClear="1" contPos="0.0" uncontrolled="0"/>
  <connection  tls="0" from="23296296#1" fromLane="1" to="336078058#0" toLane="1" pass="0" keepClear="1" contPos="0.0" uncontrolled="0"/>
  <connection  tls="0" from="23296296#1" fromLane="1" to="23296296#2" toLane="1" pass="0" keepClear="1" contPos="0.0" uncontrolled="0"/>
  <connection  tls="0" from="23296296#1" fromLane="1" to="336078054" toLane="1" pass="0" keepClear="1" contPos="0.0" uncontrolled="0"/>
  <connection  tls="0" from="23296296#2" fromLane="1" to="23296296#3" toLane="1" pass="0" keepClear="1" contPos="0.0" uncontrolled="0"/>
  <connection  tls="0" from="23296296#3" fromLane="1" to="150052400#1" toLane="1" pass="0" keepClear="1" contPos="0.0" uncontrolled="0"/>
  <connection  tls="0" from="23296296#3" fromLane="1" to="-150052400#0" toLane="1" pass="0" keepClear="1" contPos="0.0" uncontrolled="0"/>
  <connection  tls="0" from="23296299#0" fromLane="1" to="-74162605#1" toLane="0" pass="0" keepClear="1" contPos="0.0" uncontrolled="0"/>
  <connection  tls="0" from="23296299#0" fromLane="1" to="23296299#1" toLane="1" pass="0" keepClear="1" contPos="0.0" uncontrolled="0"/>
  <connection  tls="0" from="23296299#0" fromLane="1" to="74162605#2" toLane="0" pass="0" keepClear="1" contPos="0.0" uncontrolled="0"/>
  <connection  tls="0" from="23296299#1" fromLane="1" to="23296296#3" toLane="1" pass="0" keepClear="1" contPos="0.0" uncontrolled="0"/>
  <connection  tls="0" from="23296299#1" fromLane="1" to="-23296296#2" toLane="1" pass="0" keepClear="1" contPos="0.0" uncontrolled="0"/>
  <connection  tls="0" from="23296309" fromLane="1" to="120634988#3" toLane="1" pass="0" keepClear="1" contPos="0.0" uncontrolled="0"/>
  <connection  tls="0" from="23296318#0" fromLane="1" to="23296318#1" toLane="1" pass="0" keepClear="1" contPos="0.0" uncontrolled="0"/>
  <connection  tls="0" from="23296318#1" fromLane="1" to="132106763#2" toLane="1" pass="0" keepClear="1" contPos="0.0" uncontrolled="0"/>
  <connection  tls="0" from="23296318#1" fromLane="1" to="-132106763#1" toLane="1" pass="0" keepClear="1" contPos="0.0" uncontrolled="0"/>
  <connection  tls="0" from="23296321" fromLane="1" to="-23296321" toLane="1" pass="0" keepClear="1" contPos="0.0" uncontrolled="0"/>
  <connection  tls="0" from="23587375#0" fromLane="1" to="23587375#1" toLane="1" pass="0" keepClear="1" contPos="0.0" uncontrolled="0"/>
  <connection  tls="0" from="23587375#0" fromLane="1" to="74162533#1" toLane="0" pass="0" keepClear="1" contPos="0.0" uncontrolled="0"/>
  <connection  tls="0" from="23587375#1" fromLane="1" to="23296318#1" toLane="1" pass="0" keepClear="1" contPos="0.0" uncontrolled="0"/>
  <connection  tls="0" from="23587376#0" fromLane="1" to="23587376#1" toLane="1" pass="0" keepClear="1" contPos="0.0" uncontrolled="0"/>
  <connection  tls="0" from="23587376#0" fromLane="1" to="376877307#1" toLane="0" pass="0" keepClear="1" contPos="0.0" uncontrolled="0"/>
  <connection  tls="0" from="23587376#1" fromLane="1" to="-49403726#2" toLane="1" pass="0" keepClear="1" contPos="0.0" uncontrolled="0"/>
  <connection  tls="0" from="23587376#1" fromLane="1" to="49403726#3" toLane="1" pass="0" keepClear="1" contPos="0.0" uncontrolled="0"/>
  <connection  tls="0" from="253832442#0" fromLane="1" to="23296299#0" toLane="1" pass="0" keepClear="1" contPos="0.0" uncontrolled="0"/>
  <connection  tls="0" from="253832442#0" fromLane="1" to="253832442#1" toLane="1" pass="0" keepClear="1" contPos="0.0" uncontrolled="0"/>
  <connection  tls="0" from="253832442#0" fromLane="2" to="253832442#1" toLane="2" pass="0" keepClear="1" contPos="0.0" uncontrolled="0"/>
  <connection  tls="0" from="253832442#0" fromLane="2" to="140279537" toLane="1" pass="0" keepClear="1" contPos="0.0" uncontrolled="0"/>
  <connection  tls="0" from="253832442#1" fromLane="1" to="253832442#2" toLane="1" pass="0" keepClear="1" contPos="0.0" uncontrolled="0"/>
  <connection  tls="0" from="253832442#1" fromLane="2" to="253832442#2" toLane="2" pass="0" keepClear="1" contPos="0.0" uncontrolled="0"/>
  <connection  tls="0" from="253832442#2" fromLane="1" to="23296227#0" toLane="1" pass="0" keepClear="1" contPos="0.0" uncontrolled="0"/>
  <connection  tls="0" from="253832442#2" fromLane="2" to="23296227#0" toLane="2" pass="0" keepClear="1" contPos="0.0" uncontrolled="0"/>
  <connection  tls="0" from="27472833" fromLane="1" to="-27472833" toLane="1" pass="0" keepClear="1" contPos="0.0" uncontrolled="0"/>
  <connection  tls="0" from="30635860" fromLane="1" to="-30635860" toLane="1" pass="0" keepClear="1" contPos="0.0" uncontrolled="0"/>
  <connection  tls="0" from="32064553" fromLane="1" to="132106763#3" toLane="1" pass="0" keepClear="1" contPos="0.0" uncontrolled="0"/>
  <connection  tls="0" from="32064553" fromLane="1" to="-132106763#2" toLane="1" pass="0" keepClear="1" contPos="0.0" uncontrolled="0"/>
  <connection  tls="0" from="336078054" fromLane="1" to="-150052413#0" toLane="1" pass="0" keepClear="1" contPos="0.0" uncontrolled="0"/>
  <connection  tls="0" from="336078054" fromLane="1" to="150052413#1" toLane="1" pass="0" keepClear="1" contPos="0.0" uncontrolled="0"/>
  <connection  tls="0" from="336078058#0" fromLane="1" to="74162605#3" toLane="0" pass="0" keepClear="1" contPos="0.0" uncontrolled="0"/>
  <connection  tls="0" from="336078058#0" fromLane="1" to="336078058#1" toLane="1" pass="0" keepClear="1" contPos="0.0" uncontrolled="0"/>
  <connection  tls="0" from="336078058#0" fromLane="1" to="-74162605#2" toLane="0" pass="0" keepClear="1" contPos="0.0" uncontrolled="0"/>
  <connection  tls="0" from="336078058#1" fromLane="1" to="253832442#2" toLane="1" pass="0" keepClear="1" contPos="0.0" uncontrolled="0"/>
  <connection  tls="0" from="346004296#0" fromLane="1" to="346004296#1" toLane="1" pass="0" keepClear="1" contPos="0.0" uncontrolled="0"/>
  <connection  tls="0" from="346004296#0" fromLane="2" to="346004296#1" toLane="2" pass="0" keepClear="1" contPos="0.0" uncontrolled="0"/>
  <connection  tls="0" from="346004296#0" fromLane="3" to="346004296#1" toLane="3" pass="0" keepClear="1" contPos="0.0" uncontrolled="0"/>
  <connection  tls="0" from="346004296#0" fromLane="3" to="120634988#0" toLane="1" pass="0" keepClear="1" contPos="0.0" uncontrolled="0"/>
  <connection  tls="0" from="346004296#1" fromLane="1" to="27381994" toLane="1" pass="0" keepClear="1" contPos="0.0" uncontrolled="0"/>
  <connection  tls="0" from="346004296#1" fromLane="1" to="346004297" toLane="1" pass="0" keepClear="1" contPos="0.0" uncontrolled="0"/>
  <connection  tls="0" from="346004296#1" fromLane="2" to="346004297" toLane="2" pass="0" keepClear="1" contPos="0.0" uncontrolled="0"/>
  <connection  tls="0" from="346004296#1" fromLane="3" to="346004297" toLane="3" pass="0" keepClear="1" contPos="0.0" uncontrolled="0"/>
  <connection  tls="0" from="346004296#1" fromLane="3" to="346004297" toLane="4" pass="0" keepClear="1" contPos="0.0" uncontrolled="0"/>
  <connection  tls="0" from="346004296#1" fromLane="3" to="23296309" toLane="1" pass="0" keepClear="1" contPos="0.0" uncontrolled="0"/>
  <connection  tls="0" from="346004297" fromLane="1" to="30635860" toLane="1" pass="0" keepClear="1" contPos="0.0" uncontrolled="0"/>
  <connection  tls="0" from="346004297" fromLane="1" to="346004298#0" toLane="1" pass="0" keepClear="1" contPos="0.0" uncontrolled="0"/>
  <connection  tls="0" from="346004297" fromLane="2" to="346004298#0" toLane="2" pass="0" keepClear="1" contPos="0.0" uncontrolled="0"/>
  <connection  tls="0" from="346004297" fromLane="3" to="346004298#0" toLane="3" pass="0" keepClear="1" contPos="0.0" uncontrolled="0"/>
  <connection  tls="0" from="346004297" fromLane="4" to="-150052402#2" toLane="1" pass="0" keepClear="1" contPos="0.0" uncontrolled="0"/>
  <connection  tls="0" from="346004298#0" fromLane="1" to="27472833" toLane="1" pass="0" keepClear="1" contPos="0.0" uncontrolled="0"/>
  <connection  tls="0" from="346004298#0" fromLane="1" to="346004298#1" toLane="1" pass="0" keepClear="1" contPos="0.0" uncontrolled="0"/>
  <connection  tls="0" from="346004298#0" fromLane="2" to="346004298#1" toLane="2" pass="0" keepClear="1" contPos="0.0" uncontrolled="0"/>
  <connection  tls="0" from="346004298#0" fromLane="3" to="346004298#1" toLane="3" pass="0" keepClear="1" contPos="0.0" uncontrolled="0"/>
  <connection  tls="0" from="346004298#1" fromLane="1" to="346004298#2" toLane="1" pass="0" keepClear="1" contPos="0.0" uncontrolled="0"/>
  <connection  tls="0" from="346004298#1" fromLane="2" to="346004298#2" toLane="2" pass="0" keepClear="1" contPos="0.0" uncontrolled="0"/>