<?xml version="1.0" encoding="UTF-8"?>

<!-- generated on 2022-02-04 00:53:26 by Eclipse SUMO netconvert Version 1.9.2
<configuration xmlns:xsi="http://www.w3.org/2001/XMLSchema-instance" xsi:noNamespaceSchemaLocation="http://sumo.dlr.de/xsd/netconvertConfiguration.xsd">

    <input>
        <node-files value="../demo_od_turnflows/demo.nod.xml"/>
        <edge-files value="../demo_od_turnflows/demo.edg.xml"/>
        <connection-files value="../demo_od_turnflows/demo.con.xml"/>
        <tllogic-files value="../demo_od_turnflows/demo.tll.xml"/>
    </input>

    <output>
        <output-file value="../demo_od_turnflows/demo.net.xml"/>
    </output>

    <report>
        <aggregate-warnings value="5"/>
        <ignore-errors.connections value="true"/>
        <ignore-errors.edge-type value="true"/>
    </report>

</configuration>
-->

<net version="1.9" junctionCornerDetail="5" limitTurnSpeed="5.50" xmlns:xsi="http://www.w3.org/2001/XMLSchema-instance" xsi:noNamespaceSchemaLocation="http://sumo.dlr.de/xsd/net_file.xsd">

    <location netOffset="-687565.00,-4927630.00" convBoundary="0.00,0.00,1209.62,1047.04" origBoundary="11.358681,44.477629,11.373864,44.487018" projParameter="+proj=utm +zone=32 +ellps=WGS84 +datum=WGS84 +units=m +no_defs"/>

    <edge id=":1282529686_0" function="internal">
        <lane id=":1282529686_0_0" index="0" allow="bus" speed="3.53" length="4.38" width="3.00" shape="474.55,213.17 475.87,212.84 476.67,213.07 476.97,213.85 476.77,215.19"/>
    </edge>
    <edge id=":1282529686_w0" function="walkingarea">
        <lane id=":1282529686_w0_0" index="0" allow="pedestrian" speed="1.00" length="12.90" width="1.00" shape="477.88,216.20 478.55,216.81 468.34,207.51 469.01,208.12"/>
    </edge>
    <edge id=":1352203848_0" function="internal">
        <lane id=":1352203848_0_0" index="0" disallow="pedestrian tram rail_urban rail rail_electric rail_fast ship" speed="7.90" length="13.82" width="3.00" shape="457.17,367.88 453.38,369.96 451.06,372.40 450.23,375.20 450.87,378.35"/>
    </edge>
    <edge id=":1352203848_1" function="internal">
        <lane id=":1352203848_1_0" index="0" disallow="pedestrian tram rail_urban rail rail_electric rail_fast ship" speed="7.96" length="14.08" width="3.00" shape="444.02,361.91 445.87,364.73 448.49,366.21 451.87,366.34 456.01,365.12"/>
    </edge>
    <edge id=":1352203848_2" function="internal">
        <lane id=":1352203848_2_0" index="0" disallow="pedestrian tram rail_urban rail rail_electric rail_fast ship" speed="13.89" length="17.81" width="3.00" shape="444.02,361.91 450.87,378.35"/>
    </edge>
    <edge id=":1352203848_c0" function="crossing" crossingEdges="-120634989 120634989">
        <lane id=":1352203848_c0_0" index="0" allow="pedestrian" speed="1.00" length="6.00" width="4.00" shape="453.59,364.51 455.91,370.04"/>
    </edge>
    <edge id=":1352203848_w0" function="walkingarea">
        <lane id=":1352203848_w0_0" index="0" allow="pedestrian" speed="1.00" length="6.28" width="4.00" shape="452.25,377.78 454.10,377.02 458.52,371.11 457.75,369.27 455.46,370.40 453.72,371.64 452.53,373.01 451.89,374.48 451.80,376.07"/>
    </edge>
    <edge id=":1352203848_w1" function="walkingarea">
        <lane id=":1352203848_w1_0" index="0" allow="pedestrian" speed="1.00" length="6.42" width="4.00" shape="455.43,363.73 454.66,361.89 447.24,360.55 445.40,361.33 446.34,362.95 447.57,364.09 449.09,364.74 450.91,364.89 453.02,364.56"/>
    </edge>
    <edge id=":1820491659_0" function="internal">
        <lane id=":1820491659_0_0" index="0" disallow="pedestrian tram rail_urban rail rail_electric rail_fast ship" speed="13.89" length="17.84" width="3.00" shape="263.06,679.06 270.28,695.38"/>
    </edge>
    <edge id=":1820491659_1" function="internal">
        <lane id=":1820491659_1_0" index="0" disallow="pedestrian tram rail_urban rail rail_electric rail_fast ship" speed="8.34" length="15.00" width="3.00" shape="263.06,679.06 264.43,683.49 264.40,687.13 262.97,690.01 260.15,692.11"/>
    </edge>
    <edge id=":1820491659_2" function="internal">
        <lane id=":1820491659_2_0" index="0" disallow="pedestrian tram rail_urban rail rail_electric rail_fast ship" speed="8.05" length="14.73" width="3.00" shape="258.83,689.41 262.23,688.48 265.27,689.16 267.95,691.47 270.28,695.38"/>
    </edge>
    <edge id=":1820491659_c0" function="crossing" crossingEdges="139762405#1">
        <lane id=":1820491659_c0_0" index="0" allow="pedestrian" speed="1.00" length="3.00" width="4.00" shape="270.82,692.94 268.09,694.18"/>
    </edge>
    <edge id=":1820491659_c1" function="crossing" crossingEdges="139762405#0">
        <lane id=":1820491659_c1_0" index="0" allow="pedestrian" speed="1.00" length="3.00" width="4.00" shape="262.47,681.49 265.23,680.31"/>
    </edge>
    <edge id=":1820491659_c2" function="crossing" crossingEdges="170939103 -170939103">
        <lane id=":1820491659_c2_0" index="0" allow="pedestrian" speed="1.00" length="6.00" width="4.00" shape="262.60,692.58 259.98,687.19"/>
    </edge>
    <edge id=":1820491659_w0" function="walkingarea">
        <lane id=":1820491659_w0_0" index="0" allow="pedestrian" speed="1.00" length="11.29" width="4.00" shape="269.99,691.12 271.65,694.76 273.47,693.94 266.28,677.68 264.44,678.47 266.02,682.15"/>
    </edge>
    <edge id=":1820491659_w1" function="walkingarea">
        <lane id=":1820491659_w1_0" index="0" allow="pedestrian" speed="1.00" length="5.28" width="4.00" shape="261.68,679.66 257.30,686.26 258.18,688.06 259.91,687.03 261.18,685.86 262.00,684.53 262.35,683.05 262.25,681.43"/>
    </edge>
    <edge id=":1820491659_w2" function="walkingarea">
        <lane id=":1820491659_w2_0" index="0" allow="pedestrian" speed="1.00" length="4.93" width="4.00" shape="260.80,693.46 261.68,695.26 268.91,696.00 268.02,694.46 266.94,693.36 265.68,692.71 264.24,692.51 262.61,692.76"/>
    </edge>
    <edge id=":1820491661_0" function="internal">
        <lane id=":1820491661_0_0" index="0" disallow="pedestrian tram rail_urban rail rail_electric rail_fast ship" speed="3.53" length="4.38" width="3.00" shape="178.43,731.86 177.09,731.68 176.42,731.17 176.43,730.33 177.11,729.16"/>
    </edge>
    <edge id=":1820491661_w0" function="walkingarea">
        <lane id=":1820491661_w0_0" index="0" allow="pedestrian" speed="1.00" length="8.00" width="2.00" shape="176.46,727.81 175.58,726.01 179.96,735.01 179.08,733.21"/>
    </edge>
    <edge id=":251883875_0" function="internal">
        <lane id=":251883875_0_0" index="0" allow="bus" speed="12.29" length="36.03" width="3.00" shape="290.67,403.84 284.69,395.91 277.66,391.92 269.58,391.85 260.43,395.72"/>
    </edge>
    <edge id=":251883875_1" function="internal">
        <lane id=":251883875_1_0" index="0" disallow="pedestrian tram rail_urban rail rail_electric rail_fast ship" speed="22.22" length="48.42" width="3.00" shape="290.67,403.84 285.93,394.61 279.93,382.14 274.14,369.58 270.05,360.04"/>
    </edge>
    <edge id=":251883875_2" function="internal">
        <lane id=":251883875_2_0" index="0" disallow="pedestrian tram rail_urban rail rail_electric rail_fast ship" speed="13.62" length="41.77" width="3.00" shape="290.67,403.84 286.64,393.20 286.89,383.71 291.41,375.35 300.22,368.14"/>
    </edge>
    <edge id=":251883875_3" function="internal">
        <lane id=":251883875_3_0" index="0" allow="bus" speed="12.85" length="37.07" width="3.00" shape="301.78,370.70 293.96,377.10 289.94,384.52 289.72,392.95 293.29,402.40"/>
    </edge>
    <edge id=":251883875_4" function="internal">
        <lane id=":251883875_4_0" index="0" allow="bus" speed="13.89" length="48.33" width="3.00" shape="301.78,370.70 260.43,395.72"/>
    </edge>
    <edge id=":251883875_5" function="internal">
        <lane id=":251883875_5_0" index="0" allow="bus" speed="12.46" length="40.60" width="3.00" shape="301.78,370.70 291.08,375.54 282.52,375.47 275.66,370.36 270.05,360.04"/>
    </edge>
    <edge id=":251883875_6" function="internal">
        <lane id=":251883875_6_0" index="0" disallow="pedestrian tram rail_urban rail rail_electric rail_fast ship" speed="10.60" length="29.06" width="3.00" shape="272.83,358.94 276.60,364.88 281.90,367.53 288.74,366.91 297.11,363.01"/>
    </edge>
    <edge id=":251883875_7" function="internal">
        <lane id=":251883875_7_0" index="0" disallow="pedestrian tram rail_urban rail rail_electric rail_fast ship" speed="22.22" length="48.05" width="3.00" shape="272.83,358.94 276.91,368.42 282.64,380.87 288.58,393.22 293.29,402.40"/>
    </edge>
    <edge id=":251883875_8" function="internal">
        <lane id=":251883875_8_0" index="0" allow="bus" speed="14.50" length="42.83" width="3.00" shape="272.83,358.94 275.57,370.11 274.42,379.96 269.37,388.50 260.43,395.72"/>
    </edge>
    <edge id=":251883875_9" function="internal">
        <lane id=":251883875_9_0" index="0" disallow="pedestrian tram rail_urban rail rail_electric rail_fast ship" speed="12.67" length="32.52" width="3.00" shape="254.24,385.45 263.05,379.14 268.63,372.80 270.96,366.43 270.05,360.04"/>
    </edge>
    <edge id=":251883875_10" function="internal">
        <lane id=":251883875_10_0" index="0" disallow="pedestrian tram rail_urban rail rail_electric rail_fast ship" speed="13.89" length="48.40" width="3.00" shape="254.24,385.45 297.11,363.01"/>
        <lane id=":251883875_10_1" index="1" disallow="pedestrian tram rail_urban rail rail_electric rail_fast ship" speed="13.89" length="48.40" width="3.00" shape="255.79,388.02 298.67,365.57"/>
        <lane id=":251883875_10_2" index="2" disallow="pedestrian tram rail_urban rail rail_electric rail_fast ship" speed="13.89" length="48.40" width="3.00" shape="257.34,390.59 300.22,368.14"/>
    </edge>
    <edge id=":251883875_13" function="internal">
        <lane id=":251883875_13_0" index="0" disallow="pedestrian tram rail_urban rail rail_electric rail_fast ship" speed="13.09" length="41.01" width="3.00" shape="258.89,393.16 269.29,388.75 278.50,388.82 286.50,393.37 293.29,402.40"/>
    </edge>
    <edge id=":251883875_c0" function="crossing" crossingEdges="-150052402#2 150052402#2">
        <lane id=":251883875_c0_0" index="0" allow="pedestrian" speed="1.00" length="6.00" width="4.00" shape="293.64,399.92 288.39,402.81"/>
    </edge>
    <edge id=":251883875_c1" function="crossing" crossingEdges="346004298#0 -346004298#0">
        <lane id=":251883875_c1_0" index="0" allow="pedestrian" speed="1.00" length="12.00" width="4.00" shape="294.62,362.76 300.85,373.02"/>
    </edge>
    <edge id=":251883875_c2" function="crossing" crossingEdges="30635860 -30635860">
        <lane id=":251883875_c2_0" index="0" allow="pedestrian" speed="1.00" length="6.00" width="4.00" shape="269.39,362.45 274.97,360.24"/>
    </edge>
    <edge id=":251883875_c3" function="crossing" crossingEdges="-346004297 346004297">
        <lane id=":251883875_c3_0" index="0" allow="pedestrian" speed="1.00" length="15.00" width="4.00" shape="262.92,395.98 255.17,383.13"/>
    </edge>
    <edge id=":251883875_w0" function="walkingarea">
        <lane id=":251883875_w0_0" index="0" allow="pedestrian" speed="1.00" length="18.99" width="4.00" shape="261.21,397.01 261.67,397.78 288.56,405.00 289.35,404.57 285.75,399.24 281.72,395.54 277.25,393.47 272.34,393.02 266.99,394.20"/>
    </edge>
    <edge id=":251883875_w1" function="walkingarea">
        <lane id=":251883875_w1_0" index="0" allow="pedestrian" speed="1.00" length="20.02" width="4.00" shape="294.61,401.67 295.40,401.24 303.02,372.75 302.56,371.98 297.28,375.88 293.58,380.19 291.47,384.93 290.93,390.09 291.98,395.67"/>
    </edge>
    <edge id=":251883875_w2" function="walkingarea">
        <lane id=":251883875_w2_0" index="0" allow="pedestrian" speed="1.00" length="14.54" width="4.00" shape="296.33,361.73 295.86,360.96 275.07,358.05 274.23,358.39 276.33,362.23 279.06,364.76 282.43,365.97 286.43,365.87 291.06,364.46"/>
    </edge>
    <edge id=":251883875_w3" function="walkingarea">
        <lane id=":251883875_w3_0" index="0" allow="pedestrian" speed="1.00" length="18.22" width="4.00" shape="268.65,360.59 267.81,360.93 253.00,383.39 253.46,384.17 259.38,380.19 263.95,376.24 267.16,372.30 269.01,368.38 269.51,364.48"/>
    </edge>
    <edge id=":251884400_0" function="internal">
        <lane id=":251884400_0_0" index="0" disallow="pedestrian tram rail_urban rail rail_electric rail_fast ship" speed="3.53" length="4.38" width="3.00" shape="599.19,1014.51 598.95,1015.84 598.41,1016.49 597.57,1016.44 596.43,1015.70"/>
    </edge>
    <edge id=":251884400_w0" function="walkingarea">
        <lane id=":251884400_w0_0" index="0" allow="pedestrian" speed="1.00" length="6.90" width="1.00" shape="595.06,1016.30 594.23,1016.66 601.39,1013.56 600.57,1013.92"/>
    </edge>
    <edge id=":252164586_0" function="internal">
        <lane id=":252164586_0_0" index="0" disallow="pedestrian tram rail_urban rail rail_electric rail_fast ship" speed="6.67" length="7.43" width="3.00" shape="226.18,882.40 224.29,882.14 222.60,882.49 221.11,883.44 219.81,884.99"/>
    </edge>
    <edge id=":252164586_1" function="internal">
        <lane id=":252164586_1_0" index="0" disallow="pedestrian tram rail_urban rail rail_electric rail_fast ship" speed="5.28" length="6.87" width="3.00" shape="226.99,873.69 225.84,875.91 225.46,877.62 225.84,878.82 227.00,879.52"/>
    </edge>
    <edge id=":252164586_2" function="internal">
        <lane id=":252164586_2_0" index="0" disallow="pedestrian tram rail_urban rail rail_electric rail_fast ship" speed="27.78" length="13.36" width="3.00" shape="226.99,873.69 219.81,884.99"/>
        <lane id=":252164586_2_1" index="1" disallow="pedestrian tram rail_urban rail rail_electric rail_fast ship" speed="27.78" length="13.36" width="3.00" shape="224.44,872.11 217.29,883.36"/>
    </edge>
    <edge id=":252164586_c0" function="crossing" crossingEdges="23296296#0 -23296296#0">
        <lane id=":252164586_c0_0" index="0" allow="pedestrian" speed="1.00" length="6.00" width="4.00" shape="225.49,877.53 223.84,883.30"/>
    </edge>
    <edge id=":252164586_w0" function="walkingarea">
        <lane id=":252164586_w0_0" index="0" allow="pedestrian" speed="1.00" length="3.37" width="4.00" shape="221.07,885.81 221.82,886.29 225.22,885.77 225.77,883.85 224.83,883.67 223.96,883.70 223.14,883.92 222.39,884.35 221.70,884.98"/>
    </edge>
    <edge id=":252164586_w1" function="walkingarea">
        <lane id=":252164586_w1_0" index="0" allow="pedestrian" speed="1.00" length="3.01" width="4.00" shape="227.41,878.07 227.96,876.15 229.03,874.96 228.26,874.48 227.68,875.49 227.27,876.33 227.04,877.01 226.98,877.53 227.11,877.88"/>
    </edge>
    <edge id=":252164587_0" function="internal">
        <lane id=":252164587_0_0" index="0" disallow="pedestrian tram rail_urban rail rail_electric rail_fast ship" speed="13.96" length="9.63" width="3.00" shape="294.70,770.97 292.32,772.11 290.61,772.88 289.18,773.95 287.66,776.00"/>
        <lane id=":252164587_0_1" index="1" disallow="pedestrian tram rail_urban rail rail_electric rail_fast ship" speed="15.11" length="9.63" width="3.00" shape="293.27,768.33 290.48,769.70 288.52,770.66 286.89,771.98 285.11,774.42"/>
    </edge>
    <edge id=":252164587_2" function="internal">
        <lane id=":252164587_2_0" index="0" disallow="pedestrian tram rail_urban rail rail_electric rail_fast ship" speed="16.62" length="9.77" width="3.00" shape="288.66,765.49 288.26,768.32 287.66,770.21 286.67,771.97 285.11,774.42"/>
    </edge>
    <edge id=":252164587_w0" function="walkingarea">
        <lane id=":252164587_w0_0" index="0" allow="pedestrian" speed="1.00" length="7.67" width="1.00" shape="288.93,776.79 289.69,777.26 295.85,773.08 295.42,772.29 293.88,773.04 292.66,773.55 291.65,773.99 290.77,774.55 289.89,775.42"/>
    </edge>
    <edge id=":252164588_0" function="internal">
        <lane id=":252164588_0_0" index="0" disallow="pedestrian tram rail_urban rail rail_electric rail_fast ship" speed="5.68" length="7.72" width="3.00" shape="383.38,727.14 381.38,728.44 380.34,729.89 380.28,731.48 381.19,733.22"/>
    </edge>
    <edge id=":252164588_1" function="internal">
        <lane id=":252164588_1_0" index="0" disallow="pedestrian tram rail_urban rail rail_electric rail_fast ship" speed="27.78" length="9.29" width="3.00" shape="383.38,727.14 375.27,731.41"/>
        <lane id=":252164588_1_1" index="1" disallow="pedestrian tram rail_urban rail rail_electric rail_fast ship" speed="27.78" length="9.29" width="3.00" shape="382.05,724.45 373.73,728.84"/>
    </edge>
    <edge id=":252164588_3" function="internal">
        <lane id=":252164588_3_0" index="0" disallow="pedestrian tram rail_urban rail rail_electric rail_fast ship" speed="5.44" length="6.04" width="3.00" shape="382.05,724.45 380.23,725.14 378.74,725.25 377.57,724.78 376.74,723.73"/>
    </edge>
    <edge id=":252164588_c0" function="crossing" crossingEdges="23296299#0">
        <lane id=":252164588_c0_0" index="0" allow="pedestrian" speed="1.00" length="3.00" width="4.00" shape="381.16,730.72 378.78,732.55"/>
    </edge>
    <edge id=":252164588_w0" function="walkingarea">
        <lane id=":252164588_w0_0" index="0" allow="pedestrian" speed="1.00" length="2.94" width="4.00" shape="382.38,732.31 383.96,731.09 384.44,729.30 384.04,728.49 383.07,729.05 382.38,729.64 381.96,730.27 381.82,730.92 381.96,731.60"/>
    </edge>
    <edge id=":252164588_w2" function="walkingarea">
        <lane id=":252164588_w2_0" index="0" allow="pedestrian" speed="1.00" length="2.57" width="4.00" shape="376.04,732.70 376.50,733.47 380.00,734.13 379.33,733.37 378.67,732.82 378.01,732.47 377.35,732.34 376.69,732.41"/>
    </edge>
    <edge id=":252164590_0" function="internal">
        <lane id=":252164590_0_0" index="0" disallow="pedestrian tram rail_urban rail rail_electric rail_fast ship" speed="5.30" length="5.94" width="3.00" shape="563.27,645.15 562.63,644.46 561.51,644.30 559.92,644.67 557.86,645.55"/>
    </edge>
    <edge id=":252164590_1" function="internal">
        <lane id=":252164590_1_0" index="0" disallow="pedestrian tram rail_urban rail rail_electric rail_fast ship" speed="13.89" length="11.95" width="3.00" shape="563.27,645.15 562.15,641.82 561.83,639.40 561.60,636.95 560.74,633.52"/>
    </edge>
    <edge id=":252164590_2" function="internal">
        <lane id=":252164590_2_0" index="0" allow="bus" speed="7.75" length="12.80" width="3.00" shape="563.27,645.15 562.30,641.70 562.58,638.75 564.11,636.32 566.89,634.39"/>
    </edge>
    <edge id=":252164590_3" function="internal">
        <lane id=":252164590_3_0" index="0" disallow="pedestrian tram rail_urban rail rail_electric rail_fast ship" speed="5.49" length="5.95" width="3.00" shape="569.54,639.78 567.67,640.85 566.47,641.90 565.92,642.94 566.03,643.96"/>
    </edge>
    <edge id=":252164590_4" function="internal">
        <lane id=":252164590_4_0" index="0" disallow="pedestrian tram rail_urban rail rail_electric rail_fast ship" speed="27.78" length="13.04" width="3.00" shape="569.54,639.78 557.86,645.55"/>
        <lane id=":252164590_4_1" index="1" disallow="pedestrian tram rail_urban rail rail_electric rail_fast ship" speed="27.78" length="13.04" width="3.00" shape="568.21,637.08 556.52,642.87"/>
    </edge>
    <edge id=":252164590_6" function="internal">
        <lane id=":252164590_6_0" index="0" disallow="pedestrian tram rail_urban rail rail_electric rail_fast ship" speed="6.42" length="9.75" width="3.00" shape="568.21,637.08 565.72,637.86 563.65,637.52 561.99,636.08 560.74,633.52"/>
    </edge>
    <edge id=":252164590_7" function="internal">
        <lane id=":252164590_7_0" index="0" allow="bus" speed="6.95" length="9.37" width="3.00" shape="555.18,640.19 558.03,638.52 559.91,636.85 560.81,635.19 560.74,633.52"/>
    </edge>
    <edge id=":252164590_8" function="internal">
        <lane id=":252164590_8_0" index="0" allow="bus" speed="27.78" length="13.07" width="3.00" shape="555.18,640.19 566.89,634.39"/>
    </edge>
    <edge id=":252164590_9" function="internal">
        <lane id=":252164590_9_0" index="0" allow="bus" speed="7.59" length="13.27" width="3.00" shape="555.18,640.19 558.70,639.00 561.68,639.23 564.13,640.89 566.03,643.96"/>
    </edge>
    <edge id=":252164590_c0" function="crossing" crossingEdges="23587376#0 -23587376#0">
        <lane id=":252164590_c0_0" index="0" allow="pedestrian" speed="1.00" length="6.00" width="4.00" shape="566.61,641.53 561.10,643.90"/>
    </edge>
    <edge id=":252164590_c1" function="crossing" crossingEdges="23587375#0">
        <lane id=":252164590_c1_0" index="0" allow="pedestrian" speed="1.00" length="3.00" width="4.00" shape="559.95,635.89 562.80,634.95"/>
    </edge>
    <edge id=":252164590_w0" function="walkingarea">
        <lane id=":252164590_w0_0" index="0" allow="pedestrian" speed="1.00" length="2.97" width="4.00" shape="558.53,646.90 558.93,647.70 560.06,646.53 561.90,645.74 561.57,645.48 561.05,645.53 560.40,645.81 559.71,646.19 559.06,646.59"/>
    </edge>
    <edge id=":252164590_w1" function="walkingarea">
        <lane id=":252164590_w1_0" index="0" allow="pedestrian" speed="1.00" length="2.85" width="4.00" shape="567.40,643.36 569.24,642.57 570.60,641.93 570.20,641.12 569.65,641.38 568.99,641.70 568.32,642.06 567.75,642.47 567.41,642.91"/>
    </edge>
    <edge id=":252164590_w2" function="walkingarea">
        <lane id=":252164590_w2_0" index="0" allow="pedestrian" speed="1.00" length="3.97" width="4.00" shape="566.23,633.04 565.83,632.24 562.16,633.05 562.44,633.52 562.87,633.81 563.47,633.90 564.23,633.81 565.15,633.52"/>
    </edge>
    <edge id=":252164590_w3" function="walkingarea">
        <lane id=":252164590_w3_0" index="0" allow="pedestrian" speed="1.00" length="4.74" width="4.00" shape="559.32,634.00 557.42,634.63 554.11,638.04 554.51,638.84 556.17,637.95 557.49,637.08 558.47,636.26 559.09,635.47 559.38,634.71"/>
    </edge>
    <edge id=":252164591_0" function="internal">
        <lane id=":252164591_0_0" index="0" disallow="pedestrian tram rail_urban rail rail_electric rail_fast ship" speed="7.69" length="13.23" width="3.00" shape="675.74,577.37 677.12,581.26 677.21,584.46 675.99,586.97 673.46,588.79"/>
        <lane id=":252164591_0_1" index="1" disallow="pedestrian tram rail_urban rail rail_electric rail_fast ship" speed="6.99" length="10.74" width="3.00" shape="675.74,577.37 676.56,580.07 676.24,582.43 674.78,584.43 672.19,586.07"/>
    </edge>
    <edge id=":252164591_2" function="internal">
        <lane id=":252164591_2_0" index="0" allow="bus" speed="5.34" length="5.86" width="3.00" shape="670.93,583.35 672.40,582.44 673.24,581.35 673.45,580.10 673.04,578.67"/>
    </edge>
    <edge id=":252164591_c0" function="crossing" crossingEdges="-132106763#0">
        <lane id=":252164591_c0_0" index="0" allow="pedestrian" speed="1.00" length="3.00" width="4.00" shape="675.25,579.82 677.96,578.52"/>
    </edge>
    <edge id=":252164591_c1" function="crossing" crossingEdges="132106763#0">
        <lane id=":252164591_c1_0" index="0" allow="pedestrian" speed="1.00" length="3.00" width="4.00" shape="672.55,581.12 675.25,579.82"/>
    </edge>
    <edge id=":252164591_w0" function="walkingarea">
        <lane id=":252164591_w0_0" index="0" allow="pedestrian" speed="1.00" length="9.68" width="4.00" shape="674.10,590.15 674.48,590.97 677.90,576.33 677.09,576.72 678.32,579.82 678.86,582.58 678.71,584.99 677.86,587.06 676.33,588.78"/>
    </edge>
    <edge id=":252164591_w1" function="walkingarea">
        <lane id=":252164591_w1_0" index="0" allow="pedestrian" speed="1.00" length="2.31" width="4.00" shape="671.68,579.32 670.87,579.71 669.91,581.18 670.29,581.99 670.94,581.64 671.42,581.24 671.73,580.82 671.88,580.35 671.87,579.86"/>
    </edge>
    <edge id=":252164591_w2" function="walkingarea">
        <lane id=":252164591_w2_0" index="0" allow="pedestrian" speed="1.00" length="0.10" width="4.00" shape="676.12,581.62 674.39,578.02 674.39,578.02 676.12,581.62"/>
    </edge>
    <edge id=":252164726_0" function="internal">
        <lane id=":252164726_0_0" index="0" disallow="pedestrian tram rail_urban rail rail_electric rail_fast ship" speed="22.22" length="25.85" width="3.00" shape="399.64,959.42 376.84,971.60"/>
    </edge>
    <edge id=":252164726_1" function="internal">
        <lane id=":252164726_1_0" index="0" disallow="pedestrian tram rail_urban rail rail_electric rail_fast ship" speed="9.09" length="19.81" width="3.00" shape="381.62,952.68 384.39,956.88 388.08,958.97 392.69,958.93 398.22,956.78"/>
    </edge>
    <edge id=":252164726_2" function="internal">
        <lane id=":252164726_2_0" index="0" disallow="pedestrian tram rail_urban rail rail_electric rail_fast ship" speed="10.08" length="21.85" width="3.00" shape="381.62,952.68 383.51,958.84 383.34,964.05 381.11,968.30 376.84,971.60"/>
    </edge>
    <edge id=":252164726_3" function="internal">
        <lane id=":252164726_3_0" index="0" disallow="pedestrian tram rail_urban rail rail_electric rail_fast ship" speed="22.22" length="25.85" width="3.00" shape="375.42,968.96 398.22,956.78"/>
    </edge>
    <edge id=":252164726_c0" function="crossing" crossingEdges="336078054">
        <lane id=":252164726_c0_0" index="0" allow="pedestrian" speed="1.00" length="3.00" width="4.00" shape="381.05,955.12 383.80,953.91"/>
    </edge>
    <edge id=":252164726_w0" function="walkingarea">
        <lane id=":252164726_w0_0" index="0" allow="pedestrian" speed="1.00" length="25.86" width="1.00" shape="377.54,972.93 377.96,973.72 400.77,961.54 400.35,960.74"/>
    </edge>
    <edge id=":252164726_w1" function="walkingarea">
        <lane id=":252164726_w1_0" index="0" allow="pedestrian" speed="1.00" length="9.86" width="4.00" shape="397.51,955.46 397.09,954.66 384.83,951.28 383.00,952.08 384.50,954.68 386.37,956.47 388.61,957.44 391.21,957.60 394.18,956.93"/>
    </edge>
    <edge id=":252164726_w2" function="walkingarea">
        <lane id=":252164726_w2_0" index="0" allow="pedestrian" speed="1.00" length="13.77" width="4.00" shape="380.25,953.28 374.30,966.84 374.72,967.63 377.53,965.82 379.59,963.77 380.89,961.49 381.44,958.99 381.22,956.25"/>
    </edge>
    <edge id=":252164727_0" function="internal">
        <lane id=":252164727_0_0" index="0" disallow="pedestrian tram rail_urban rail rail_electric rail_fast ship" speed="13.89" length="14.58" width="3.00" shape="183.86,505.11 187.34,507.67 189.86,509.23 192.58,510.44 196.62,511.96"/>
    </edge>
    <edge id=":252164727_1" function="internal">
        <lane id=":252164727_1_0" index="0" disallow="pedestrian tram rail_urban rail rail_electric rail_fast ship" speed="13.89" length="13.70" width="3.00" shape="183.86,505.11 187.02,507.63 188.95,509.65 190.41,512.05 192.18,515.70"/>
    </edge>
    <edge id=":252164727_c0" function="crossing" crossingEdges="120634988#1">
        <lane id=":252164727_c0_0" index="0" allow="pedestrian" speed="1.00" length="3.00" width="4.00" shape="195.27,509.85 194.23,512.67"/>
    </edge>
    <edge id=":252164727_w0" function="walkingarea">
        <lane id=":252164727_w0_0" index="0" allow="pedestrian" speed="1.00" length="1.97" width="4.00" shape="193.53,515.05 195.34,514.19 196.10,513.36 194.89,512.99 193.99,512.87 193.41,513.02 193.14,513.44 193.18,514.11"/>
    </edge>
    <edge id=":252164727_w1" function="walkingarea">
        <lane id=":252164727_w1_0" index="0" allow="pedestrian" speed="1.00" length="9.32" width="4.00" shape="197.15,510.55 197.85,508.68 185.98,502.32 184.77,503.91 187.17,505.71 189.00,506.98 190.59,507.91 192.26,508.69 194.33,509.50"/>
    </edge>
    <edge id=":252164728_0" function="internal">
        <lane id=":252164728_0_0" index="0" allow="bus" speed="9.69" length="26.37" width="3.00" shape="156.95,463.64 151.45,469.44 149.56,474.91 151.27,480.05 156.58,484.87"/>
    </edge>
    <edge id=":252164728_1" function="internal">
        <lane id=":252164728_1_0" index="0" allow="bus" speed="13.89" length="36.50" width="3.00" shape="156.95,463.64 128.99,487.11"/>
    </edge>
    <edge id=":252164728_2" function="internal">
        <lane id=":252164728_2_0" index="0" disallow="pedestrian tram rail_urban rail rail_electric rail_fast ship" speed="13.89" length="36.66" width="3.00" shape="123.11,480.29 151.26,456.67"/>
        <lane id=":252164728_2_1" index="1" disallow="pedestrian tram rail_urban rail rail_electric rail_fast ship" speed="13.89" length="36.66" width="3.00" shape="125.07,482.56 153.15,458.99"/>
        <lane id=":252164728_2_2" index="2" disallow="pedestrian tram rail_urban rail rail_electric rail_fast ship" speed="13.89" length="36.66" width="3.00" shape="127.03,484.83 155.05,461.32"/>
    </edge>
    <edge id=":252164728_5" function="internal">
        <lane id=":252164728_5_0" index="0" disallow="pedestrian tram rail_urban rail rail_electric rail_fast ship" speed="13.23" length="31.97" width="3.00" shape="127.03,484.83 133.65,480.72 140.78,479.36 148.42,480.74 156.58,484.87"/>
    </edge>
    <edge id=":252164728_c0" function="crossing" crossingEdges="120634988#0">
        <lane id=":252164728_c0_0" index="0" allow="pedestrian" speed="1.00" length="3.00" width="4.00" shape="155.73,482.52 154.09,485.03"/>
    </edge>
    <edge id=":252164728_c1" function="crossing" crossingEdges="346004296#1 -346004296#1">
        <lane id=":252164728_c1_0" index="0" allow="pedestrian" speed="1.00" length="12.00" width="4.00" shape="148.76,456.77 156.35,466.07"/>
    </edge>
    <edge id=":252164728_c2" function="crossing" crossingEdges="-346004296#0 346004296#0">
        <lane id=":252164728_c2_0" index="0" allow="pedestrian" speed="1.00" length="12.00" width="4.00" shape="131.48,486.94 123.65,477.85"/>
    </edge>
    <edge id=":252164728_w0" function="walkingarea">
        <lane id=":252164728_w0_0" index="0" allow="pedestrian" speed="1.00" length="12.11" width="4.00" shape="157.40,483.61 158.50,481.94 158.47,465.50 157.90,464.80 154.27,468.28 152.06,471.61 151.27,474.82 151.89,477.88 153.94,480.82"/>
    </edge>