<?xml version="1.0" encoding="UTF-8"?>

<!-- generated on 2022-02-04 00:53:26 by Eclipse SUMO duarouter Version 1.9.2
<configuration xmlns:xsi="http://www.w3.org/2001/XMLSchema-instance" xsi:noNamespaceSchemaLocation="http://sumo.dlr.de/xsd/duarouterConfiguration.xsd">

    <input>
        <net-file value="../demo_od_turnflows/demo.net.xml"/>
        <route-files value="../demo_od_turnflows/demo.trip.xml"/>
    </input>

    <output>
        <output-file value="../demo_od_turnflows/demo.rou.xml"/>
        <alternatives-output value="../demo_od_turnflows/demo.rou.alt.xml"/>
    </output>

    <report>
        <verbose value="true"/>
        <ignore-errors value="true"/>
    </report>

</configuration>
-->

<routes xmlns:xsi="http://www.w3.org/2001/XMLSchema-instance" xsi:noNamespaceSchemaLocation="http://sumo.dlr.de/xsd/routes_file.xsd">
    <vType id="bicycle" length="1.60" minGap="0.50" maxSpeed="5.00" probability="1.00" speedFactor="normc(1.00,0.20,0.20,2.00)" vClass="bicycle" emissionClass="Zero/default" impatience="1.00" guiShape="bicycle" width="0.90" height="1.70" color="94,203,57" personCapacity="1" boardingDuration="15000" loadingDuration="180000" maxSpeedLat="0.80" latAlignment="right" minGapLat="0.12" laneChangeModel="LC2013" lcStrategic="1.0" lcCooperative="1.0" lcSpeedGain="1.0" lcKeepRight="1.0" lcAssertive="1.0" carFollowModel="Krauss" accel="1.2" decel="3.0" emergencyDecel="8.0" apparentDecel="8.0" sigma="0.7" tau="1.0"/>
    <vehicle id="128" type="bicycle" depart="5.00" departLane="best" departPos="base" departSpeed="max" arrivalLane="current" arrivalPos="max" arrivalSpeed="current">
        <route edges="-150052413#1 -150052413#0 -49403726#3 -49403726#2 -49403726#1 -49403726#0 49403726#0 49403726#1"/>
    </vehicle>
    <vType id="van1" length="5.00" minGap="1.00" maxSpeed="27.78" probability="1.00" speedFactor="normc(1.00,0.10,0.20,2.00)" vClass="delivery" emissionClass="HBEFA3/LDV_D_EU3" impatience="1.00" guiShape="passenger/van" width="1.90" height="2.50" color="185,185,255" personCapacity="2" boardingDuration="15000" loadingDuration="180000" maxSpeedLat="1.00" latAlignment="center" minGapLat="0.12" laneChangeModel="LC2013" lcStrategic="1.0" lcCooperative="1.0" lcSpeedGain="1.0" lcKeepRight="1.0" lcAssertive="1.0" carFollowModel="Krauss" accel="1.9" decel="3.5" emergencyDecel="5.0" apparentDecel="5.5" sigma="0.5" tau="1.0"/>
    <vehicle id="448" type="van1" depart="5.00" departLane="best" departPos="base" departSpeed="max" arrivalLane="current" arrivalPos="max" arrivalSpeed="current">
        <route edges="49403726#1 49403726#2 49403726#3 150052400#0 150052400#1 150052400#2 253832442#0 253832442#1 253832442#2 23296227#0"/>
    </vehicle>
    <vehicle id="351" type="bicycle" depart="10.00" departLane="best" departPos="base" departSpeed="max" arrivalLane="current" arrivalPos="max" arrivalSpeed="current">
        <route edges="346004296#0 120634988#0 139762405#0 139762405#1 23296227#0 23296296#0 23296296#1 336078054 150052413#1 -150052413#1"/>
    </vehicle>
    <vehicle id="718" type="van1" depart="11.00" departLane="best" departPos="base" departSpeed="max" arrivalLane="current" arrivalPos="max" arrivalSpeed="current">
        <route edges="-49403726#1 -49403726#0 49403726#0 49403726#1 49403726#2 -23587376#1 -23587376#0 23587375#0 23587375#1 23296318#1 132106763#2 132106763#3 23296321"/>
    </vehicle>
    <vehicle id="723" type="van1" depart="13.00" departLane="best" departPos="base" departSpeed="max" arrivalLane="current" arrivalPos="max" arrivalSpeed="current">
        <route edges="-23587376#1 -23587376#0 132106761#1 132106761#2 150052402#0 150052402#1 150052402#2 346004298#0 346004298#1 346004298#2"/>
    </vehicle>
    <vehicle id="654" type="van1" depart="19.00" departLane="best" departPos="base" departSpeed="max" arrivalLane="current" arrivalPos="max" arrivalSpeed="current">
        <route edges="23296296#1 336078054 -150052413#0 -49403726#3 -49403726#2 -49403726#1"/>
    </vehicle>
    <vehicle id="235" type="bicycle" depart="20.00" departLane="best" departPos="base" departSpeed="max" arrivalLane="current" arrivalPos="max" arrivalSpeed="current">
        <route edges="150052413#1 -150052413#1 -150052413#0 150052400#0 150052400#1 150052400#2 150052402#0 150052402#1 150052402#2 30635860"/>
    </vehicle>
    <vehicle id="904" type="van1" depart="24.00" departLane="best" departPos="base" departSpeed="max" arrivalLane="current" arrivalPos="max" arrivalSpeed="current">
        <route edges="-49403726#1 -49403726#0 49403726#0 49403726#1 49403726#2 49403726#3 150052400#0 150052400#1 150052400#2 150052402#0 150052402#1 150052402#2 30635860"/>
    </vehicle>
    <vehicle id="963" type="van1" depart="31.00" departLane="best" departPos="base" departSpeed="max" arrivalLane="current" arrivalPos="max" arrivalSpeed="current">
        <route edges="-49403726#1 -49403726#0 49403726#0 49403726#1 49403726#2 49403726#3 150052400#0 150052400#1 150052400#2 150052402#0 150052402#1 150052402#2 30635860"/>
    </vehicle>
    <vehicle id="1122" type="van1" depart="42.00" departLane="best" departPos="base" departSpeed="max" arrivalLane="current" arrivalPos="max" arrivalSpeed="current">
        <route edges="346004296#1 346004297 -150052402#2 -150052402#1 -150052402#0 -150052400#2 -150052400#1 -150052400#0 150052413#0 150052413#1 -150052413#1"/>
    </vehicle>
    <vehicle id="1038" type="van1" depart="45.00" departLane="best" departPos="base" departSpeed="max" arrivalLane="current" arrivalPos="max" arrivalSpeed="current">
        <route edges="346004296#1 346004297 -150052402#2 -150052402#1 -150052402#0 -150052400#2 -150052400#1 -150052400#0 -49403726#3 -49403726#2 -49403726#1"/>
    </vehicle>
    <vehicle id="139" type="bicycle" depart="46.00" departLane="best" departPos="base" departSpeed="max" arrivalLane="current" arrivalPos="max" arrivalSpeed="current">
        <route edges="23296227#0 23296296#0 23296296#1 23296296#2 23296296#3 -150052400#0 -49403726#3 -49403726#2 -49403726#1 -49403726#0 49403726#0 49403726#1"/>
    </vehicle>
    <vehicle id="733" type="van1" depart="51.00" departLane="best" departPos="base" departSpeed="max" arrivalLane="current" arrivalPos="max" arrivalSpeed="current">
        <route edges="150052413#1 -150052413#1 -150052413#0 150052400#0 150052400#1 150052400#2 150052402#0 23296318#0 23296318#1 132106763#2 132106763#3 132106763#5 -132106763#5"/>
    </vehicle>
    <vehicle id="719" type="van1" depart="56.00" departLane="best" departPos="base" departSpeed="max" arrivalLane="current" arrivalPos="max" arrivalSpeed="current">
        <route edges="-49403726#1 -49403726#0 49403726#0 49403726#1 49403726#2 -23587376#1 -23587376#0 23587375#0 23587375#1 23296318#1 132106763#2 132106763#3 23296321 -23296321"/>
    </vehicle>
    <vehicle id="452" type="van1" depart="59.00" departLane="best" departPos="base" departSpeed="max" arrivalLane="current" arrivalPos="max" arrivalSpeed="current">
        <route edges="-49403726#1 -49403726#0 49403726#0 49403726#1 49403726#2 49403726#3 150052413#0 150052413#1 -150052413#1"/>
    </vehicle>
    <vehicle id="479" type="van1" depart="59.00" departLane="best" departPos="base" departSpeed="max" arrivalLane="current" arrivalPos="max" arrivalSpeed="current">
        <route edges="-49403726#1 -49403726#0 49403726#0 49403726#1 49403726#2 49403726#3 150052413#0 150052413#1 -150052413#1"/>
    </vehicle>
    <vehicle id="747" type="van1" depart="65.00" departLane="best" departPos="base" departSpeed="max" arrivalLane="current" arrivalPos="max" arrivalSpeed="current">
        <route edges="23296299#1 23296296#3 150052400#1 150052400#2 150052402#0 23296318#0 23296318#1 132106763#2 132106763#3 23296321 -23296321"/>
    </vehicle>
    <vehicle id="467" type="van1" depart="69.00" departLane="best" departPos="base" departSpeed="max" arrivalLane="current" arrivalPos="max" arrivalSpeed="current">
        <route edges="-49403726#1 -49403726#0 49403726#0 49403726#1 49403726#2 49403726#3 150052413#0 150052413#1 -150052413#1"/>
    </vehicle>
    <vehicle id="77" type="bicycle" depart="69.00" departLane="best" departPos="base" departSpeed="max" arrivalLane="current" arrivalPos="max" arrivalSpeed="current">
        <route edges="-23587376#1 -23587376#0 132106761#1 132106761#2 253832442#0 253832442#1 253832442#2 23296227#0 23296296#0 -74162605#3"/>
    </vehicle>
    <vehicle id="176" type="bicycle" depart="85.00" departLane="best" departPos="base" departSpeed="max" arrivalLane="current" arrivalPos="max" arrivalSpeed="current">
        <route edges="-23296296#1 -74162605#3 -74162605#2 -74162605#1 150052400#2 150052402#0 23296318#0 23296318#1 132106763#2 132106763#3 23296321"/>
    </vehicle>
    <vehicle id="198" type="bicycle" depart="91.00" departLane="best" departPos="base" departSpeed="max" arrivalLane="current" arrivalPos="max" arrivalSpeed="current">
        <route edges="-150052413#1 -150052413#0 150052400#0 150052400#1 150052400#2 150052402#0 150052402#1 150052402#2 346004298#0 27472833 -27472833"/>
    </vehicle>
    <vehicle id="608" type="van1" depart="96.00" departLane="best" departPos="base" departSpeed="max" arrivalLane="current" arrivalPos="max" arrivalSpeed="current">
        <route edges="150052413#1 -150052413#1 -150052413#0 -49403726#3 -49403726#2 -49403726#1 -49403726#0 49403726#0 49403726#1"/>
    </vehicle>
    <vehicle id="132" type="bicycle" depart="102.00" departLane="best" departPos="base" departSpeed="max" arrivalLane="current" arrivalPos="max" arrivalSpeed="current">
        <route edges="-74162605#3 -74162605#2 23296299#1 23296296#3 -150052400#0 -49403726#3 -49403726#2 -49403726#1 -49403726#0 49403726#0 49403726#1"/>
    </vehicle>
    <vehicle id="785" type="van1" depart="118.00" departLane="best" departPos="base" departSpeed="max" arrivalLane="current" arrivalPos="max" arrivalSpeed="current">
        <route edges="23296227#0 23296296#0 23296296#1 23296296#2 23296296#3 150052400#1 150052400#2 150052402#0 150052402#1 150052402#2 30635860 -30635860"/>
    </vehicle>
    <vehicle id="918" type="van1" depart="119.00" departLane="best" departPos="base" departSpeed="max" arrivalLane="current" arrivalPos="max" arrivalSpeed="current">
        <route edges="-49403726#1 -49403726#0 49403726#0 49403726#1 49403726#2 49403726#3 150052400#0 150052400#1 150052400#2 150052402#0 150052402#1 150052402#2 30635860"/>
    </vehicle>
    <vehicle id="410" type="van1" depart="120.00" departLane="best" departPos="base" departSpeed="max" arrivalLane="current" arrivalPos="max" arrivalSpeed="current">
        <route edges="-23587376#1 -23587376#0 132106761#1 132106761#2 253832442#0 253832442#1 253832442#2 23296227#0 23296296#0 23296296#1"/>
    </vehicle>
    <vehicle id="594" type="van1" depart="126.00" departLane="best" departPos="base" departSpeed="max" arrivalLane="current" arrivalPos="max" arrivalSpeed="current">
        <route edges="23296299#1 23296296#3 -150052400#0 -49403726#3 -23587376#1"/>
    </vehicle>
    <vehicle id="11" type="bicycle" depart="128.00" departLane="best" departPos="base" departSpeed="max" arrivalLane="current" arrivalPos="max" arrivalSpeed="current">
        <route edges="49403726#1 49403726#2 49403726#3 150052413#0 150052413#1 -150052413#1"/>
    </vehicle>
    <vehicle id="234" type="bicycle" depart="128.00" departLane="best" departPos="base" departSpeed="max" arrivalLane="current" arrivalPos="max" arrivalSpeed="current">
        <route edges="336078058#0 -74162605#2 -74162605#1 150052400#2 150052402#0 150052402#1 150052402#2 30635860 -30635860"/>
    </vehicle>
    <vehicle id="376" type="bicycle" depart="130.00" departLane="best" departPos="base" departSpeed="max" arrivalLane="current" arrivalPos="max" arrivalSpeed="current">
        <route edges="346004296#0 120634988#0 139762405#0 139762405#1 23296227#0 23296296#0 23296296#1 336078054 150052413#1"/>
    </vehicle>
    <vehicle id="944" type="van1" depart="130.00" departLane="best" departPos="base" departSpeed="max" arrivalLane="current" arrivalPos="max" arrivalSpeed="current">
        <route edges="-49403726#1 -49403726#0 49403726#0 49403726#1 49403726#2 49403726#3 150052400#0 150052400#1 150052400#2 150052402#0 150052402#1 150052402#2 346004298#0 27472833"/>
    </vehicle>
    <vehicle id="1092" type="van1" depart="133.00" departLane="best" departPos="base" departSpeed="max" arrivalLane="current" arrivalPos="max" arrivalSpeed="current">
        <route edges="346004296#0 346004296#1 346004297 -150052402#2 -150052402#1 -150052402#0 -150052400#2 -150052400#1 -150052400#0 150052413#0 150052413#1 -150052413#1"/>
    </vehicle>
    <vehicle id="924" type="van1" depart="133.00" departLane="best" departPos="base" departSpeed="max" arrivalLane="current" arrivalPos="max" arrivalSpeed="current">
        <route edges="-49403726#1 -49403726#0 49403726#0 49403726#1 49403726#2 49403726#3 150052400#0 150052400#1 150052400#2 150052402#0 150052402#1 150052402#2 30635860 -30635860"/>
    </vehicle>
    <vehicle id="361" type="bicycle" depart="134.00" departLane="best" departPos="base" departSpeed="max" arrivalLane="current" arrivalPos="max" arrivalSpeed="current">
        <route edges="346004296#0 120634988#0 139762405#0 139762405#1 23296227#0 23296296#0 -74162605#3"/>
    </vehicle>
    <vehicle id="696" type="van1" depart="138.00" departLane="best" departPos="base" departSpeed="max" arrivalLane="current" arrivalPos="max" arrivalSpeed="current">
        <route edges="49403726#1 49403726#2 -23587376#1 -23587376#0 23587375#0 23587375#1 23296318#1 132106763#2 132106763#3 23296321 -23296321"/>
    </vehicle>
    <vehicle id="955" type="van1" depart="141.00" departLane="best" departPos="base" departSpeed="max" arrivalLane="current" arrivalPos="max" arrivalSpeed="current">
        <route edges="49403726#1 49403726#2 49403726#3 150052400#0 150052400#1 150052400#2 150052402#0 150052402#1 150052402#2 30635860 -30635860"/>
    </vehicle>
    <vehicle id="287" type="bicycle" depart="141.00" departLane="best" departPos="base" departSpeed="max" arrivalLane="current" arrivalPos="max" arrivalSpeed="current">
        <route edges="49403726#1 49403726#2 49403726#3 150052400#0 150052400#1 150052400#2 150052402#0 150052402#1 150052402#2 30635860 -30635860"/>
    </vehicle>
    <vehicle id="891" type="van1" depart="144.00" departLane="best" departPos="base" departSpeed="max" arrivalLane="current" arrivalPos="max" arrivalSpeed="current">
        <route edges="49403726#1 49403726#2 49403726#3 150052400#0 150052400#1 150052400#2 150052402#0 150052402#1 150052402#2 30635860 -30635860"/>
    </vehicle>
    <vehicle id="929" type="van1" depart="145.00" departLane="best" departPos="base" departSpeed="max" arrivalLane="current" arrivalPos="max" arrivalSpeed="current">
        <route edges="49403726#1 49403726#2 49403726#3 150052400#0 150052400#1 150052400#2 150052402#0 150052402#1 150052402#2 30635860 -30635860"/>
    </vehicle>
    <vehicle id="74" type="bicycle" depart="146.00" departLane="best" departPos="base" departSpeed="max" arrivalLane="current" arrivalPos="max" arrivalSpeed="current">
        <route edges="49403726#1 49403726#2 49403726#3 150052400#0 -23296296#3 -23296296#2 336078058#0"/>
    </vehicle>
    <vehicle id="123" type="bicycle" depart="147.00" departLane="best" departPos="base" departSpeed="max" arrivalLane="current" arrivalPos="max" arrivalSpeed="current">
        <route edges="150052413#1 -150052413#1 -150052413#0 -49403726#3 -23587376#1 -23587376#0 23587375#0 74162533#1 74162533#2"/>
    </vehicle>
    <vehicle id="1113" type="van1" depart="151.00" departLane="best" departPos="base" departSpeed="max" arrivalLane="current" arrivalPos="max" arrivalSpeed="current">
        <route edges="346004296#0 346004296#1 346004297 -150052402#2 -150052402#1 -150052402#0 -150052400#2 -150052400#1 -150052400#0 150052413#0 150052413#1 -150052413#1"/>
    </vehicle>
    <vehicle id="1145" type="van1" depart="152.00" departLane="best" departPos="base" departSpeed="max" arrivalLane="current" arrivalPos="max" arrivalSpeed="current">
        <route edges="346004296#1 346004297 -150052402#2 -150052402#1 -150052402#0 -150052400#2 -150052400#1 -23296296#3 -23296296#2 -23296296#1"/>
    </vehicle>
    <vehicle id="510" type="van1" depart="156.00" departLane="best" departPos="base" departSpeed="max" arrivalLane="current" arrivalPos="max" arrivalSpeed="current">
        <route edges="-49403726#1 -49403726#0 49403726#0 49403726#1 49403726#2 49403726#3 150052413#0 150052413#1"/>
    </vehicle>
    <vehicle id="241" type="bicycle" depart="156.00" departLane="best" departPos="base" departSpeed="max" arrivalLane="current" arrivalPos="max" arrivalSpeed="current">
        <route edges="49403726#1 49403726#2 49403726#3 150052400#0 150052400#1 150052400#2 150052402#0 150052402#1 150052402#2 346004298#0 27472833 -27472833"/>
    </vehicle>
    <vehicle id="461" type="van1" depart="159.00" departLane="best" departPos="base" departSpeed="max" arrivalLane="current" arrivalPos="max" arrivalSpeed="current">
        <route edges="-49403726#1 -49403726#0 49403726#0 49403726#1 49403726#2 49403726#3 150052400#0 -23296296#3 -23296296#2 -23296296#1"/>
    </vehicle>
    <vehicle id="674" type="van1" depart="162.00" departLane="best" departPos="base" departSpeed="max" arrivalLane="current" arrivalPos="max" arrivalSpeed="current">
        <route edges="150052413#1 -150052413#1 -150052413#0 -49403726#3 -23587376#1 -23587376#0 132106761#1 132106761#2 -150052400#2 -150052400#1"/>
    </vehicle>
    <vehicle id="155" type="bicycle" depart="172.00" departLane="best" departPos="base" departSpeed="max" arrivalLane="current" arrivalPos="max" arrivalSpeed="current">
        <route edges="49403726#1 49403726#2 -23587376#1 -23587376#0 23587375#0 74162533#1 132106763#1 132106763#2 132106763#3 23296321 -23296321"/>
    </vehicle>
    <vehicle id="997" type="van1" depart="187.00" departLane="best" departPos="base" departSpeed="max" arrivalLane="current" arrivalPos="max" arrivalSpeed="current">
        <route edges="346004296#0 346004296#1 346004297 -150052402#2 -150052402#1 -150052402#0 -150052400#2 -150052400#1 -150052400#0 -49403726#3 -49403726#2 -49403726#1"/>
    </vehicle>
    <vehicle id="635" type="van1" depart="193.00" departLane="best" departPos="base" departSpeed="max" arrivalLane="current" arrivalPos="max" arrivalSpeed="current">
        <route edges="23296296#1 336078054 -150052413#0 -49403726#3 -49403726#2 -49403726#1 -49403726#0 49403726#0 49403726#1"/>
    </vehicle>
    <vehicle id="824" type="van1" depart="201.00" departLane="best" departPos="base" departSpeed="max" arrivalLane="current" arrivalPos="max" arrivalSpeed="current">
        <route edges="23296299#1 23296296#3 150052400#1 150052400#2 150052402#0 150052402#1 150052402#2 30635860 -30635860"/>
    </vehicle>
    <vehicle id="564" type="van1" depart="216.00" departLane="best" departPos="base" departSpeed="max" arrivalLane="current" arrivalPos="max" arrivalSpeed="current">
        <route edges="23587376#1 49403726#3 150052413#0 150052413#1 -150052413#1"/>
    </vehicle>
    <vehicle id="692" type="van1" depart="216.00" departLane="best" departPos="base" departSpeed="max" arrivalLane="current" arrivalPos="max" arrivalSpeed="current">
        <route edges="-49403726#1 -49403726#0 49403726#0 49403726#1 49403726#2 -23587376#1 -23587376#0 23587375#0 23587375#1 23296318#1 132106763#2 132106763#3 23296321 -23296321"/>
    </vehicle>
    <vehicle id="922" type="van1" depart="217.00" departLane="best" departPos="base" departSpeed="max" arrivalLane="current" arrivalPos="max" arrivalSpeed="current">
        <route edges="23587376#1 49403726#3 150052400#0 150052400#1 150052400#2 150052402#0 150052402#1 150052402#2 30635860 -30635860"/>
    </vehicle>
    <vehicle id="612" type="van1" depart="219.00" departLane="best" departPos="base" departSpeed="max" arrivalLane="current" arrivalPos="max" arrivalSpeed="current">
        <route edges="23296227#0 23296296#0 23296296#1 336078054 -150052413#0 -49403726#3 -49403726#2 -49403726#1"/>
    </vehicle>
    <vehicle id="1119" type="van1" depart="224.00" departLane="best" departPos="base" departSpeed="max" arrivalLane="current" arrivalPos="max" arrivalSpeed="current">
        <route edges="346004296#1 346004297 -150052402#2 -150052402#1 -150052402#0 -150052400#2 -150052400#1 -150052400#0 150052413#0 150052413#1"/>
    </vehicle>
    <vehicle id="1013" type="van1" depart="231.00" departLane="best" departPos="base" departSpeed="max" arrivalLane="current" arrivalPos="max" arrivalSpeed="current">
        <route edges="346004296#1 346004297 -150052402#2 -150052402#1 -150052402#0 -150052400#2 -150052400#1 -150052400#0 -49403726#3 -49403726#2 -49403726#1"/>
    </vehicle>
    <vehicle id="140" type="bicycle" depart="237.00" departLane="best" departPos="base" departSpeed="max" arrivalLane="current" arrivalPos="max" arrivalSpeed="current">
        <route edges="23296227#0 23296296#0 23296296#1 23296296#2 23296296#3 -150052400#0 -49403726#3 -49403726#2 -49403726#1"/>
    </vehicle>
    <vehicle id="751" type="van1" depart="238.00" departLane="best" departPos="base" departSpeed="max" arrivalLane="current" arrivalPos="max" arrivalSpeed="current">
        <route edges="23296299#1 23296296#3 150052400#1 150052400#2 150052402#0 23296318#0 23296318#1 132106763#2 132106763#3 23296321 -23296321"/>
    </vehicle>
    <vehicle id="571" type="van1" depart="240.00" departLane="best" departPos="base" departSpeed="max" arrivalLane="current" arrivalPos="max" arrivalSpeed="current">
        <route edges="-49403726#2 -49403726#1 -49403726#0 49403726#0 49403726#1 49403726#2 49403726#3 150052400#0 150052400#1 150052400#2 253832442#0 253832442#1 253832442#2 23296227#0 23296296#0 23296296#1"/>
    </vehicle>
    <vehicle id="589" type="van1" depart="247.00" departLane="best" departPos="base" departSpeed="max" arrivalLane="current" arrivalPos="max" arrivalSpeed="current">
        <route edges="49403726#1 49403726#2 49403726#3 150052413#0 150052413#1 -150052413#1"/>
    </vehicle>
    <vehicle id="993" type="van1" depart="248.00" departLane="best" departPos="base" departSpeed="max" arrivalLane="current" arrivalPos="max" arrivalSpeed="current">
        <route edges="346004296#0 346004296#1 346004297 -150052402#2 -150052402#1 -150052402#0 -150052400#2 -150052400#1 -150052400#0 -49403726#3 -49403726#2 -49403726#1 -49403726#0 49403726#0 49403726#1"/>
    </vehicle>
    <vehicle id="871" type="van1" depart="248.00" departLane="best" departPos="base" departSpeed="max" arrivalLane="current" arrivalPos="max" arrivalSpeed="current">
        <route edges="-49403726#1 -49403726#0 49403726#0 49403726#1 49403726#2 49403726#3 150052400#0 150052400#1 150052400#2 150052402#0 150052402#1 150052402#2 30635860"/>
    </vehicle>
    <vehicle id="353" type="bicycle" depart="255.00" departLane="best" departPos="base" departSpeed="max" arrivalLane="current" arrivalPos="max" arrivalSpeed="current">
        <route edges="346004296#1 346004297 -150052402#2 -150052402#1 -150052402#0 -150052400#2 -150052400#1 -150052400#0 150052413#0 150052413#1 -150052413#1"/>
    </vehicle>
    <vehicle id="717" type="van1" depart="257.00" departLane="best" departPos="base" departSpeed="max" arrivalLane="current" arrivalPos="max" arrivalSpeed="current">
        <route edges="-49403726#1 -49403726#0 49403726#0 49403726#1 49403726#2 -23587376#1 -23587376#0 23587375#0 23587375#1 23296318#1 132106763#2 132106763#3 23296321"/>
    </vehicle>
    <vehicle id="159" type="bicycle" depart="260.00" departLane="best" departPos="base" departSpeed="max" arrivalLane="current" arrivalPos="max" arrivalSpeed="current">
        <route edges="-49403726#1 -49403726#0 49403726#0 49403726#1 49403726#2 -23587376#1 -23587376#0 23587375#0 74162533#1 132106763#1 132106763#2 132106763#3 23296321 -23296321"/>
    </vehicle>
    <vehicle id="1105" type="van1" depart="262.00" departLane="best" departPos="base" departSpeed="max" arrivalLane="current" arrivalPos="max" arrivalSpeed="current">
        <route edges="346004296#0 120634988#0 139762405#0 139762405#1 23296227#0 23296296#0 23296296#1"/>
    </vehicle>
    <vehicle id="915" type="van1" depart="263.00" departLane="best" departPos="base" departSpeed="max" arrivalLane="current" arrivalPos="max" arrivalSpeed="current">
        <route edges="-49403726#1 -49403726#0 49403726#0 49403726#1 49403726#2 49403726#3 150052400#0 150052400#1 150052400#2 150052402#0 150052402#1 150052402#2 30635860 -30635860"/>
    </vehicle>
    <vehicle id="694" type="van1" depart="268.00" departLane="best" departPos="base" departSpeed="max" arrivalLane="current" arrivalPos="max" arrivalSpeed="current">
        <route edges="49403726#1 49403726#2 49403726#3 150052400#0 150052400#1 150052400#2 150052402#0 150052402#1 150052402#2 346004298#0 346004298#1 120634986#0 -120634989"/>
    </vehicle>
    <vehicle id="76" type="bicycle" depart="268.00" departLane="best" departPos="base" departSpeed="max" arrivalLane="current" arrivalPos="max" arrivalSpeed="current">
        <route edges="49403726#1 49403726#2 49403726#3 150052400#0 -23296296#3 -23296296#2 336078058#0"/>
    </vehicle>
    <vehicle id="513" type="van1" depart="273.00" departLane="best" departPos="base" departSpeed="max" arrivalLane="current" arrivalPos="max" arrivalSpeed="current">
        <route edges="-49403726#1 -49403726#0 49403726#0 49403726#1 49403726#2 49403726#3 150052413#0 150052413#1 -150052413#1"/>
    </vehicle>
    <vehicle id="728" type="van1" depart="274.00" departLane="best" departPos="base" departSpeed="max" arrivalLane="current" arrivalPos="max" arrivalSpeed="current">
        <route edges="49403726#1 49403726#2 -23587376#1 -23587376#0 23587375#0 23587375#1 23296318#1 132106763#2 132106763#3 23296321"/>
    </vehicle>
    <vehicle id="168" type="bicycle" depart="281.00" departLane="best" departPos="base" departSpeed="max" arrivalLane="current" arrivalPos="max" arrivalSpeed="current">
        <route edges="-49403726#1 -49403726#0 49403726#0 49403726#1 49403726#2 -23587376#1 -23587376#0 23587375#0 74162533#1 132106763#1 132106763#2 132106763#3 23296321 -23296321"/>
    </vehicle>
    <vehicle id="660" type="van1" depart="286.00" departLane="best" departPos="base" departSpeed="max" arrivalLane="current" arrivalPos="max" arrivalSpeed="current">
        <route edges="336078058#0 336078058#1 253832442#2 23296227#0 23296296#0 23296296#1 336078054 -150052413#0 -49403726#3 -49403726#2 -49403726#1"/>
    </vehicle>
    <vehicle id="469" type="van1" depart="286.00" departLane="best" departPos="base" departSpeed="max" arrivalLane="current" arrivalPos="max" arrivalSpeed="current">
        <route edges="-23587376#1 -23587376#0 132106761#1 132106761#2 -150052400#2 -150052400#1 -150052400#0 150052413#0 150052413#1"/>
    </vehicle>
    <vehicle id="255" type="bicycle" depart="290.00" departLane="best" departPos="base" departSpeed="max" arrivalLane="current" arrivalPos="max" arrivalSpeed="current">
        <route edges="-49403726#1 -49403726#0 49403726#0 49403726#1 49403726#2 49403726#3 150052400#0 150052400#1 150052400#2 150052402#0 150052402#1 150052402#2 30635860 -30635860"/>
    </vehicle>
    <vehicle id="532" type="van1" depart="301.00" departLane="best" departPos="base" departSpeed="max" arrivalLane="current" arrivalPos="max" arrivalSpeed="current">
        <route edges="49403726#1 49403726#2 49403726#3 150052413#0 150052413#1"/>
    </vehicle>
    <vehicle id="430" type="van1" depart="307.00" departLane="best" departPos="base" departSpeed="max" arrivalLane="current" arrivalPos="max" arrivalSpeed="current">
        <route edges="49403726#1 49403726#2 49403726#3 150052400#0 -23296296#3 -23296296#2 336078058#0"/>
    </vehicle>
    <vehicle id="572" type="van1" depart="307.00" departLane="best" departPos="base" departSpeed="max" arrivalLane="current" arrivalPos="max" arrivalSpeed="current">
        <route edges="-49403726#1 -49403726#0 49403726#0 49403726#1 49403726#2 49403726#3 150052413#0 150052413#1"/>
    </vehicle>
    <vehicle id="1165" type="van1" depart="309.00" departLane="best" departPos="base" departSpeed="max" arrivalLane="current" arrivalPos="max" arrivalSpeed="current">
        <route edges="346004296#0 120634988#0 139762405#0 139762405#1 23296227#0 23296296#0 23296296#1"/>
    </vehicle>
    <vehicle id="987" type="van1" depart="313.00" departLane="best" departPos="base" departSpeed="max" arrivalLane="current" arrivalPos="max" arrivalSpeed="current">
        <route edges="346004296#0 346004296#1 346004297 -150052402#2 -150052402#1 23296318#0 23296318#1 -132106763#1 -132106763#0 132106761#0 23587376#0 23587376#1"/>
    </vehicle>
    <vehicle id="307" type="bicycle" depart="321.00" departLane="best" departPos="base" departSpeed="max" arrivalLane="current" arrivalPos="max" arrivalSpeed="current">
        <route edges="346004296#0 120634988#0 120634988#1 120634988#3 -150052402#1 -150052402#0 -150052400#2 -150052400#1 -150052400#0 -49403726#3 -49403726#2 -49403726#1"/>
    </vehicle>
    <vehicle id="754" type="van1" depart="325.00" departLane="best" departPos="base" departSpeed="max" arrivalLane="current" arrivalPos="max" arrivalSpeed="current">
        <route edges="150052413#1 -150052413#1 -150052413#0 150052400#0 150052400#1 150052400#2 150052402#0 23296318#0 23296318#1 132106763#2 132106763#3 23296321"/>
    </vehicle>
    <vehicle id="907" type="van1" depart="326.00" departLane="best" departPos="base" departSpeed="max" arrivalLane="current" arrivalPos="max" arrivalSpeed="current">
        <route edges="-49403726#1 -49403726#0 49403726#0 49403726#1 49403726#2 49403726#3 150052400#0 150052400#1 150052400#2 150052402#0 150052402#1 150052402#2 30635860"/>
    </vehicle>
    <vehicle id="849" type="van1" depart="327.00" departLane="best" departPos="base" departSpeed="max" arrivalLane="current" arrivalPos="max" arrivalSpeed="current">
        <route edges="-150052413#1 -150052413#0 150052400#0 150052400#1 150052400#2 150052402#0 150052402#1 150052402#2 30635860"/>
    </vehicle>