<?xml version="1.0" encoding="UTF-8"?>
<edges>
    <edge  id="-120634989" type="highway.residential" numLanes="2" average_slopes="0.0" positive_climbs="0.0" negative_climbs="0.0" speed="13.888" priority="4" length="93.5955657959" shape="456.59,366.5,0.0 542.91,330.32,0.0" spreadType="right" endOffset="0.0" from="1352203848" to="cluster_1352203847_252164873">
        <lane  index="0" width="2.0" speed="0.8" endOffset="0.0" allow="pedestrian"/>
        <lane  index="1" width="3.0" speed="13.89" endOffset="0.0" disallow="pedestrian tram rail_urban rail rail_electric rail_fast ship"/>
    </edge>
    <edge  id="-132106761#0" type="highway.secondary" numLanes="2" average_slopes="0.0" positive_climbs="0.0" negative_climbs="0.0" speed="13.888" priority="7" length="121.343025208" shape="564.84,637.07,0.0 668.35,586.21,0.0 673.8,583.67,0.0" spreadType="right" endOffset="0.0" from="252164590" to="252164591">
        <lane  index="0" width="0.9" speed="0.8" endOffset="0.0" allow="pedestrian"/>
        <lane  index="1" width="3.0" speed="27.78" endOffset="0.0" allow="bus"/>
    </edge>
    <edge  id="-132106761#1" type="highway.secondary" numLanes="2" average_slopes="0.0" positive_climbs="0.0" negative_climbs="0.0" speed="13.888" priority="7" length="100.247398376" shape="469.17,683.92,0.0 501.08,668.36,0.0 540.65,649.12,0.0 559.21,639.85,0.0" spreadType="right" endOffset="0.0" from="877225174" to="252164590">
        <lane  index="0" width="0.9" speed="0.8" endOffset="0.0" allow="pedestrian"/>
        <lane  index="1" width="3.0" speed="27.78" endOffset="0.0" allow="bus"/>
    </edge>
    <edge  id="-132106761#2" type="highway.secondary" numLanes="2" average_slopes="0.0" positive_climbs="0.0" negative_climbs="0.0" speed="13.888" priority="7" length="3.90988111496" shape="460.78,687.91,0.0 464.32,686.25,0.0" spreadType="right" endOffset="0.0" from="252164783" to="877225174">
        <lane  index="0" width="0.9" speed="0.8" endOffset="0.0" allow="pedestrian"/>
        <lane  index="1" width="3.0" speed="27.78" endOffset="0.0" allow="bus"/>
    </edge>
    <edge  id="-132106763#0" type="highway.tertiary" numLanes="2" average_slopes="0.0" positive_climbs="0.0" negative_climbs="0.0" speed="13.888" priority="6" length="1.49837601185" shape="674.55,578.36,0.0 675.2,579.71,0.0" spreadType="right" endOffset="0.0" from="877225158" to="252164591">
        <lane  index="0" width="0.9" speed="0.8" endOffset="0.0" allow="pedestrian"/>
        <lane  index="1" width="3.0" speed="13.89" endOffset="0.0" disallow="pedestrian tram rail_urban rail rail_electric rail_fast ship"/>
    </edge>
    <edge  id="-132106763#1" type="highway.tertiary" numLanes="2" average_slopes="0.0" positive_climbs="0.0" negative_climbs="0.0" speed="13.888" priority="6" length="71.5279006958" shape="643.29,507.43,0.0 672.03,572.93,0.0" spreadType="right" endOffset="0.0" from="252165129" to="877225158">
        <lane  index="0" width="0.9" speed="0.8" endOffset="0.0" allow="pedestrian"/>
        <lane  index="1" width="3.0" speed="13.89" endOffset="0.0" disallow="pedestrian tram rail_urban rail rail_electric rail_fast ship"/>
    </edge>
    <edge  id="-132106763#2" type="highway.tertiary" numLanes="2" average_slopes="0.0" positive_climbs="0.0" negative_climbs="0.0" speed="13.888" priority="6" length="71.1379013062" shape="603.45,419.0,0.0 608.92,430.97,0.0 632.78,483.81,0.0" spreadType="right" endOffset="0.0" from="252165085" to="252165129">
        <lane  index="0" width="0.9" speed="0.8" endOffset="0.0" allow="pedestrian"/>
        <lane  index="1" width="3.0" speed="13.89" endOffset="0.0" disallow="pedestrian tram rail_urban rail rail_electric rail_fast ship"/>
    </edge>
    <edge  id="-132106763#3" type="highway.tertiary" numLanes="2" average_slopes="0.0" positive_climbs="0.0" negative_climbs="0.0" speed="13.888" priority="6" length="59.764995575" shape="568.87,340.69,0.0 592.88,395.42,0.0" spreadType="right" endOffset="0.0" from="cluster_1352203847_252164873" to="252165085">
        <lane  index="0" width="0.9" speed="0.8" endOffset="0.0" allow="pedestrian"/>
        <lane  index="1" width="3.0" speed="13.89" endOffset="0.0" disallow="pedestrian tram rail_urban rail rail_electric rail_fast ship"/>
    </edge>
    <edge  id="-132106763#5" type="highway.tertiary" numLanes="2" average_slopes="0.0" positive_climbs="0.0" negative_climbs="0.0" speed="13.888" priority="6" length="90.1963195801" shape="515.9,222.62,0.0 517.01,225.09,0.0 552.94,304.86,0.0" spreadType="right" endOffset="0.0" from="252164874" to="cluster_1352203847_252164873">
        <lane  index="0" width="0.9" speed="0.8" endOffset="0.0" allow="pedestrian"/>
        <lane  index="1" width="3.0" speed="13.89" endOffset="0.0" disallow="pedestrian tram rail_urban rail rail_electric rail_fast ship"/>
    </edge>
    <edge  id="-150052400#0" type="highway.tertiary" numLanes="2" average_slopes="0.0" positive_climbs="0.0" negative_climbs="0.0" speed="13.888" priority="6" length="22.9847145081" shape="522.46,841.29,0.0 531.69,862.34,0.0" spreadType="right" endOffset="0.0" from="252165023" to="252164984">
        <lane  index="0" width="0.9" speed="0.8" endOffset="0.0" allow="pedestrian"/>
        <lane  index="1" width="3.0" speed="22.22" endOffset="0.0" disallow="pedestrian tram rail_urban rail rail_electric rail_fast ship"/>
    </edge>
    <edge  id="-150052400#1" type="highway.tertiary" numLanes="2" average_slopes="0.0" positive_climbs="0.0" negative_climbs="0.0" speed="13.888" priority="6" length="113.898651123" shape="465.09,708.99,0.0 510.35,813.51,0.0" spreadType="right" endOffset="0.0" from="877225139" to="252165023">
        <lane  index="0" width="0.9" speed="0.8" endOffset="0.0" allow="pedestrian"/>
        <lane  index="1" width="3.0" speed="22.22" endOffset="0.0" disallow="pedestrian tram rail_urban rail rail_electric rail_fast ship"/>
    </edge>
    <edge  id="-150052400#2" type="highway.tertiary" numLanes="2" average_slopes="0.0" positive_climbs="0.0" negative_climbs="0.0" speed="13.888" priority="6" length="5.13276147842" shape="458.54,693.83,0.0 460.58,698.54,0.0" spreadType="right" endOffset="0.0" from="252164783" to="877225139">
        <lane  index="0" width="0.9" speed="0.8" endOffset="0.0" allow="pedestrian"/>
        <lane  index="1" width="3.0" speed="22.22" endOffset="0.0" disallow="pedestrian tram rail_urban rail rail_electric rail_fast ship"/>
    </edge>
    <edge  id="-150052402#0" type="highway.tertiary" numLanes="2" average_slopes="0.0" positive_climbs="0.0" negative_climbs="0.0" speed="13.888" priority="6" length="87.2441101074" shape="410.04,610.98,0.0 454.56,686.01,0.0" spreadType="right" endOffset="0.0" from="252165111" to="252164783">
        <lane  index="0" width="0.9" speed="0.8" endOffset="0.0" allow="pedestrian"/>
        <lane  index="1" width="3.0" speed="22.22" endOffset="0.0" disallow="pedestrian tram rail_urban rail rail_electric rail_fast ship"/>
    </edge>
    <edge  id="-150052402#1" type="highway.tertiary" numLanes="2" average_slopes="0.0" positive_climbs="0.0" negative_climbs="0.0" speed="13.888" priority="6" length="64.3820419312" shape="364.12,533.31,0.0 396.87,588.74,0.0" spreadType="right" endOffset="0.0" from="252165083" to="252165111">
        <lane  index="0" width="0.9" speed="0.8" endOffset="0.0" allow="pedestrian"/>
        <lane  index="1" width="3.0" speed="22.22" endOffset="0.0" disallow="pedestrian tram rail_urban rail rail_electric rail_fast ship"/>
    </edge>
    <edge  id="-150052402#2" type="highway.tertiary" numLanes="2" average_slopes="0.0" positive_climbs="0.0" negative_climbs="0.0" speed="13.888" priority="6" length="118.540626526" shape="291.98,403.12,0.0 349.12,506.98,0.0" spreadType="right" endOffset="0.0" from="251883875" to="252165083">
        <lane  index="0" width="0.9" speed="0.8" endOffset="0.0" allow="pedestrian"/>
        <lane  index="1" width="3.0" speed="22.22" endOffset="0.0" disallow="pedestrian tram rail_urban rail rail_electric rail_fast ship"/>
    </edge>
    <edge  id="-150052413#0" type="highway.tertiary" numLanes="2" average_slopes="0.0" positive_climbs="0.0" negative_climbs="0.0" speed="13.888" priority="6" length="139.174301147" shape="398.93,958.1,0.0 467.82,921.17,0.0 521.47,892.12,0.0" spreadType="right" endOffset="0.0" from="252164726" to="252164984">
        <lane  index="0" width="0.9" speed="0.8" endOffset="0.0" allow="pedestrian"/>
        <lane  index="1" width="3.0" speed="22.22" endOffset="0.0" disallow="pedestrian tram rail_urban rail rail_electric rail_fast ship"/>
    </edge>
    <edge  id="-150052413#1" type="highway.tertiary" numLanes="2" average_slopes="0.0" positive_climbs="0.0" negative_climbs="0.0" speed="13.888" priority="6" length="158.162124634" shape="236.48,1044.53,0.0 238.14,1043.64,0.0 277.87,1022.65,0.0 376.13,970.28,0.0" spreadType="right" endOffset="0.0" from="365178425" to="252164726">
        <lane  index="0" width="0.9" speed="0.8" endOffset="0.0" allow="pedestrian"/>
        <lane  index="1" width="3.0" speed="22.22" endOffset="0.0" disallow="pedestrian tram rail_urban rail rail_electric rail_fast ship"/>
    </edge>
    <edge  id="-170939103" type="highway.residential" numLanes="2" average_slopes="0.0" positive_climbs="0.0" negative_climbs="0.0" speed="13.888" priority="4" length="86.4157485962" shape="181.78,728.56,0.0 259.49,690.76,0.0" spreadType="right" endOffset="0.0" from="1820491661" to="1820491659">
        <lane  index="0" width="2.0" speed="0.8" endOffset="0.0" allow="pedestrian"/>
        <lane  index="1" width="3.0" speed="13.89" endOffset="0.0" disallow="pedestrian tram rail_urban rail rail_electric rail_fast ship"/>
    </edge>
    <edge  id="-23296246" type="highway.tertiary" numLanes="2" average_slopes="0.0" positive_climbs="0.0" negative_climbs="0.0" speed="13.888" priority="6" length="118.333862305" shape="548.76,901.57,0.0 595.69,1010.2,0.0" spreadType="right" endOffset="0.0" from="252164984" to="251884400">
        <lane  index="0" width="0.9" speed="0.8" endOffset="0.0" allow="pedestrian"/>
        <lane  index="1" width="3.0" speed="22.22" endOffset="0.0" disallow="pedestrian tram rail_urban rail rail_electric rail_fast ship"/>
    </edge>
    <edge  id="-23296296#0" type="highway.residential" numLanes="2" average_slopes="0.0" positive_climbs="0.0" negative_climbs="0.0" speed="13.888" priority="4" length="1.42444372177" shape="226.13,880.83,0.0 224.76,880.44,0.0" spreadType="right" endOffset="0.0" from="877225128" to="252164586">
        <lane  index="0" width="2.0" speed="0.8" endOffset="0.0" allow="pedestrian"/>
        <lane  index="1" width="3.0" speed="13.89" endOffset="0.0" disallow="pedestrian tram rail_urban rail rail_electric rail_fast ship"/>
    </edge>
    <edge  id="-23296296#1" type="highway.residential" numLanes="2" average_slopes="0.0" positive_climbs="0.0" negative_climbs="0.0" speed="13.888" priority="4" length="113.707748413" shape="344.62,894.8,0.0 243.9,884.81,0.0 231.68,882.21,0.0" spreadType="right" endOffset="0.0" from="252165017" to="877225128">
        <lane  index="0" width="2.0" speed="0.8" endOffset="0.0" allow="pedestrian"/>
        <lane  index="1" width="3.0" speed="13.89" endOffset="0.0" disallow="pedestrian tram rail_urban rail rail_electric rail_fast ship"/>
    </edge>
    <edge  id="-23296296#2" type="highway.residential" numLanes="2" average_slopes="0.0" positive_climbs="0.0" negative_climbs="0.0" speed="13.888" priority="4" length="67.128944397" shape="431.02,862.41,0.0 370.06,890.52,0.0" spreadType="right" endOffset="0.0" from="252165022" to="252165017">
        <lane  index="0" width="2.0" speed="0.8" endOffset="0.0" allow="pedestrian"/>
        <lane  index="1" width="3.0" speed="13.89" endOffset="0.0" disallow="pedestrian tram rail_urban rail rail_electric rail_fast ship"/>
    </edge>
    <edge  id="-23296296#3" type="highway.residential" numLanes="2" average_slopes="0.0" positive_climbs="0.0" negative_climbs="0.0" speed="13.888" priority="4" length="54.8230133057" shape="502.32,833.08,0.0 451.47,853.57,0.0" spreadType="right" endOffset="0.0" from="252165023" to="252165022">
        <lane  index="0" width="2.0" speed="0.8" endOffset="0.0" allow="pedestrian"/>
        <lane  index="1" width="3.0" speed="13.89" endOffset="0.0" disallow="pedestrian tram rail_urban rail rail_electric rail_fast ship"/>
    </edge>
    <edge  id="-23296321" type="highway.residential" numLanes="2" average_slopes="0.0" positive_climbs="0.0" negative_climbs="0.0" speed="13.888" priority="4" length="121.402603149" shape="701.96,323.11,0.0 638.17,322.69,0.0 603.67,321.48,0.0 580.59,322.16,0.0" spreadType="right" endOffset="0.0" from="252164903" to="cluster_1352203847_252164873">
        <lane  index="0" width="2.0" speed="0.8" endOffset="0.0" allow="pedestrian"/>
        <lane  index="1" width="3.0" speed="13.89" endOffset="0.0" disallow="pedestrian tram rail_urban rail rail_electric rail_fast ship"/>
    </edge>
    <edge  id="-23587376#0" type="highway.unclassified" numLanes="2" average_slopes="0.0" positive_climbs="0.0" negative_climbs="0.0" speed="13.888" priority="5" length="1.66624355316" shape="563.92,642.86,0.0 563.26,641.33,0.0" spreadType="right" endOffset="0.0" from="877225145" to="252164590">
        <lane  index="0" width="2.0" speed="0.8" endOffset="0.0" allow="pedestrian"/>
        <lane  index="1" width="3.0" speed="13.89" endOffset="0.0" disallow="pedestrian tram rail_urban rail rail_electric rail_fast ship"/>
    </edge>
    <edge  id="-23587376#1" type="highway.unclassified" numLanes="2" average_slopes="0.0" positive_climbs="0.0" negative_climbs="0.0" speed="13.888" priority="5" length="184.135528564" shape="634.87,819.69,0.0 566.37,648.77,0.0" spreadType="right" endOffset="0.0" from="252164983" to="877225145">
        <lane  index="0" width="2.0" speed="0.8" endOffset="0.0" allow="pedestrian"/>
        <lane  index="1" width="3.0" speed="13.89" endOffset="0.0" disallow="pedestrian tram rail_urban rail rail_electric rail_fast ship"/>
    </edge>
    <edge  id="-27472833" type="highway.residential" numLanes="2" average_slopes="0.0" positive_climbs="0.0" negative_climbs="0.0" speed="13.888" priority="4" length="238.11857605" shape="214.37,114.22,0.0 359.03,303.36,0.0" spreadType="right" endOffset="0.0" from="301647166" to="301647167">
        <lane  index="0" width="2.0" speed="0.8" endOffset="0.0" allow="pedestrian"/>
        <lane  index="1" width="3.0" speed="13.89" endOffset="0.0" disallow="pedestrian tram rail_urban rail rail_electric rail_fast ship"/>
    </edge>
    <edge  id="-30635860" type="highway.tertiary" numLanes="2" average_slopes="0.0" positive_climbs="0.0" negative_climbs="0.0" speed="13.888" priority="6" length="384.214599609" shape="125.92,4.67,0.0 134.75,20.5,0.0 165.61,77.39,0.0 175.34,105.06,0.0 183.21,128.15,0.0 184.41,130.16,0.0 204.7,184.71,0.0 241.39,283.61,0.0 271.44,359.49,0.0" spreadType="right" endOffset="0.0" from="301647159" to="251883875">
        <lane  index="0" width="0.9" speed="0.8" endOffset="0.0" allow="pedestrian"/>
        <lane  index="1" width="3.0" speed="22.22" endOffset="0.0" disallow="pedestrian tram rail_urban rail rail_electric rail_fast ship"/>
    </edge>
    <edge  id="-346004296#0" type="highway.secondary" numLanes="2" average_slopes="0.0" positive_climbs="0.0" negative_climbs="0.0" speed="13.888" priority="7" length="162.557006836" shape="128.01,485.97,0.0 106.25,504.74,0.0 84.49,523.75,0.0 65.51,541.32,0.0 42.03,562.41,0.0 33.6,569.99,0.0 16.82,582.57,0.0 12.38,587.23,0.0 5.92,593.14,0.0" spreadType="right" endOffset="0.0" from="252164728" to="3526012905">
        <lane  index="0" width="0.9" speed="0.8" endOffset="0.0" allow="pedestrian"/>
        <lane  index="1" width="3.0" speed="13.89" endOffset="0.0" allow="bus"/>
    </edge>
    <edge  id="-346004296#1" type="highway.secondary" numLanes="2" average_slopes="0.0" positive_climbs="0.0" negative_climbs="0.0" speed="13.888" priority="7" length="66.0466461182" shape="210.28,424.99,0.0 183.83,442.01,0.0 176.3,446.74,0.0 168.68,452.13,0.0 156.0,462.48,0.0" spreadType="right" endOffset="0.0" from="3526156976" to="252164728">
        <lane  index="0" width="0.9" speed="0.8" endOffset="0.0" allow="pedestrian"/>
        <lane  index="1" width="3.0" speed="13.89" endOffset="0.0" allow="bus"/>
    </edge>
    <edge  id="-346004297" type="highway.secondary" numLanes="2" average_slopes="0.0" positive_climbs="0.0" negative_climbs="0.0" speed="13.888" priority="7" length="14.4007844925" shape="259.66,394.44,0.0 247.33,401.88,0.0" spreadType="right" endOffset="0.0" from="251883875" to="3526156976">
        <lane  index="0" width="0.9" speed="0.8" endOffset="0.0" allow="pedestrian"/>
        <lane  index="1" width="3.0" speed="13.89" endOffset="0.0" allow="bus"/>
    </edge>
    <edge  id="-346004298#0" type="highway.secondary" numLanes="2" average_slopes="0.0" positive_climbs="0.0" negative_climbs="0.0" speed="13.888" priority="7" length="66.0844421387" shape="355.99,333.07,0.0 344.48,343.04,0.0 301.0,369.42,0.0" spreadType="right" endOffset="0.0" from="301647167" to="251883875">
        <lane  index="0" width="0.9" speed="0.8" endOffset="0.0" allow="pedestrian"/>
        <lane  index="1" width="3.0" speed="13.89" endOffset="0.0" allow="bus"/>
    </edge>
    <edge  id="-346004298#1" type="highway.secondary" numLanes="2" average_slopes="0.0" positive_climbs="0.0" negative_climbs="0.0" speed="13.888" priority="7" length="16.3654193878" shape="398.04,294.08,0.0 386.25,305.43,0.0" spreadType="right" endOffset="0.0" from="252164799" to="301647167">
        <lane  index="0" width="0.9" speed="0.8" endOffset="0.0" allow="pedestrian"/>
        <lane  index="1" width="3.0" speed="13.89" endOffset="0.0" allow="bus"/>
    </edge>
    <edge  id="-346004298#2" type="highway.secondary" numLanes="2" average_slopes="0.0" positive_climbs="0.0" negative_climbs="0.0" speed="13.888" priority="7" length="66.8571243286" shape="470.26,220.11,0.0 467.49,223.15,0.0 459.33,231.92,0.0 458.7,232.59,0.0 446.7,245.64,0.0 424.08,268.44,0.0" spreadType="right" endOffset="0.0" from="1282529686" to="252164799">
        <lane  index="0" width="0.9" speed="0.8" endOffset="0.0" allow="pedestrian"/>
        <lane  index="1" width="3.0" speed="13.89" endOffset="0.0" allow="bus"/>
    </edge>
    <edge  id="-49403726#0" type="highway.tertiary" numLanes="2" average_slopes="0.0" positive_climbs="0.0" negative_climbs="0.0" speed="13.888" priority="6" length="165.123291016" shape="1054.31,625.11,0.0 1204.75,557.04,0.0" spreadType="right" endOffset="0.0" from="628644554" to="566682635">
        <lane  index="0" width="0.9" speed="0.8" endOffset="0.0" allow="pedestrian"/>
        <lane  index="1" width="3.0" speed="22.22" endOffset="0.0" disallow="pedestrian tram rail_urban rail rail_electric rail_fast ship"/>
    </edge>
    <edge  id="-49403726#1" type="highway.tertiary" numLanes="2" average_slopes="0.0" positive_climbs="0.0" negative_climbs="0.0" speed="13.888" priority="6" length="295.703094482" shape="772.42,770.24,0.0 871.59,720.86,0.0 1035.11,634.51,0.0" spreadType="right" endOffset="0.0" from="262702049" to="628644554">
        <lane  index="0" width="0.9" speed="0.8" endOffset="0.0" allow="pedestrian"/>
        <lane  index="1" width="3.0" speed="22.22" endOffset="0.0" disallow="pedestrian tram rail_urban rail rail_electric rail_fast ship"/>
    </edge>
    <edge  id="-49403726#2" type="highway.tertiary" numLanes="2" average_slopes="0.0" positive_climbs="0.0" negative_climbs="0.0" speed="13.888" priority="6" length="109.862876892" shape="654.18,827.21,0.0 753.21,779.64,0.0" spreadType="right" endOffset="0.0" from="252164983" to="262702049">
        <lane  index="0" width="0.9" speed="0.8" endOffset="0.0" allow="pedestrian"/>
        <lane  index="1" width="3.0" speed="22.22" endOffset="0.0" disallow="pedestrian tram rail_urban rail rail_electric rail_fast ship"/>
    </edge>
    <edge  id="-49403726#3" type="highway.tertiary" numLanes="2" average_slopes="0.0" positive_climbs="0.0" negative_climbs="0.0" speed="13.888" priority="6" length="74.662322998" shape="559.56,872.66,0.0 626.85,840.31,0.0" spreadType="right" endOffset="0.0" from="252164984" to="252164983">
        <lane  index="0" width="0.9" speed="0.8" endOffset="0.0" allow="pedestrian"/>
        <lane  index="1" width="3.0" speed="22.22" endOffset="0.0" disallow="pedestrian tram rail_urban rail rail_electric rail_fast ship"/>
    </edge>
    <edge  id="-74162560#0" type="highway.cycleway" numLanes="1" average_slopes="0.0" positive_climbs="0.0" negative_climbs="0.0" speed="5.56" priority="1" length="1.34242653847" shape="467.86,687.55,0.0 468.42,688.77,0.0" spreadType="right" endOffset="0.0" from="877225174" to="877225146">
        <lane  index="0" width="1.0" speed="5.56" endOffset="0.0" allow="bicycle"/>
    </edge>
    <edge  id="-74162560#1" type="highway.cycleway" numLanes="1" average_slopes="0.0" positive_climbs="0.0" negative_climbs="0.0" speed="5.56" priority="1" length="2.19318127632" shape="464.74,680.65,0.0 465.64,682.65,0.0" spreadType="right" endOffset="0.0" from="877225160" to="877225174">
        <lane  index="0" width="1.0" speed="5.56" endOffset="0.0" allow="bicycle"/>
    </edge>
    <edge  id="-74162605#0" type="highway.cycleway" numLanes="1" average_slopes="0.0" positive_climbs="0.0" negative_climbs="0.0" speed="5.56" priority="1" length="7.57036447525" shape="467.95,701.28,0.0 468.1,701.21,0.0 469.15,693.88,0.0" spreadType="right" endOffset="0.0" from="877225139" to="877225146">
        <lane  index="0" width="1.0" speed="5.56" endOffset="0.0" allow="bicycle"/>
    </edge>
    <edge  id="-74162605#1" type="highway.cycleway" numLanes="1" average_slopes="0.0" positive_climbs="0.0" negative_climbs="0.0" speed="5.56" priority="1" length="77.9058990479" shape="387.56,733.6,0.0 388.0,733.3,0.0 444.47,701.91,0.0 457.17,703.2,0.0" spreadType="right" endOffset="0.0" from="877225143" to="877225139">
        <lane  index="0" width="1.0" speed="5.56" endOffset="0.0" allow="bicycle"/>
    </edge>
    <edge  id="-74162605#2" type="highway.cycleway" numLanes="1" average_slopes="0.0" positive_climbs="0.0" negative_climbs="0.0" speed="5.56" priority="1" length="85.4417724609" shape="304.96,773.23,0.0 309.87,768.84,0.0 316.85,766.62,0.0 324.37,765.13,0.0 349.25,753.61,0.0 353.18,748.53,0.0 377.09,737.67,0.0 380.84,737.35,0.0" spreadType="right" endOffset="0.0" from="877225136" to="877225143">
        <lane  index="0" width="1.0" speed="5.56" endOffset="0.0" allow="bicycle"/>
    </edge>
    <edge  id="-74162605#3" type="highway.cycleway" numLanes="1" average_slopes="0.0" positive_climbs="0.0" negative_climbs="0.0" speed="5.56" priority="1" length="123.269119263" shape="230.44,879.22,0.0 293.7,781.71,0.0 299.44,777.64,0.0" spreadType="right" endOffset="0.0" from="877225128" to="877225136">
        <lane  index="0" width="1.0" speed="5.56" endOffset="0.0" allow="bicycle"/>
    </edge>
    <edge  id="-74162605#4" type="highway.cycleway" numLanes="1" average_slopes="0.0" positive_climbs="0.0" negative_climbs="0.0" speed="5.56" priority="1" length="71.5623626709" shape="166.22,918.18,0.0 166.93,918.0,0.0 172.46,911.83,0.0 193.08,900.66,0.0 224.39,888.81,0.0 227.37,884.05,0.0" spreadType="right" endOffset="0.0" from="877225147" to="877225128">
        <lane  index="0" width="1.0" speed="5.56" endOffset="0.0" allow="bicycle"/>
    </edge>
    <edge  id="120634986#0" type="highway.residential" numLanes="2" average_slopes="0.0" positive_climbs="0.0" negative_climbs="0.0" speed="13.888" priority="4" length="68.6497039795" shape="418.3,298.25,0.0 444.94,361.52,0.0" spreadType="center" endOffset="0.0" from="252164799" to="1352203848">
        <lane  index="0" width="2.0" speed="0.8" endOffset="0.0" allow="pedestrian"/>
        <lane  index="1" width="3.0" speed="13.89" endOffset="0.0" disallow="pedestrian tram rail_urban rail rail_electric rail_fast ship"/>
    </edge>
    <edge  id="120634986#1" type="highway.residential" numLanes="2" average_slopes="0.0" positive_climbs="0.0" negative_climbs="0.0" speed="13.888" priority="4" length="79.8465270996" shape="451.79,377.97,0.0 482.27,451.77,0.0" spreadType="center" endOffset="0.0" from="1352203848" to="252165084">
        <lane  index="0" width="2.0" speed="0.8" endOffset="0.0" allow="pedestrian"/>
        <lane  index="1" width="3.0" speed="13.89" endOffset="0.0" disallow="pedestrian tram rail_urban rail rail_electric rail_fast ship"/>
    </edge>
    <edge  id="120634987" type="highway.residential" numLanes="2" average_slopes="0.0" positive_climbs="0.0" negative_climbs="0.0" speed="13.888" priority="4" length="118.540245056" shape="477.6,463.78,0.0 370.2,513.95,0.0" spreadType="center" endOffset="0.0" from="252165084" to="252165083">
        <lane  index="0" width="2.0" speed="0.8" endOffset="0.0" allow="pedestrian"/>
        <lane  index="1" width="3.0" speed="13.89" endOffset="0.0" disallow="pedestrian tram rail_urban rail rail_electric rail_fast ship"/>
    </edge>
    <edge  id="120634988#0" type="highway.residential" numLanes="2" average_slopes="0.0" positive_climbs="0.0" negative_climbs="0.0" speed="13.888" priority="4" length="34.0522346497" shape="157.13,484.03,0.0 161.84,487.11,0.0 184.47,504.31,0.0" spreadType="center" endOffset="0.0" from="252164728" to="252164727">
        <lane  index="0" width="2.0" speed="0.8" endOffset="0.0" allow="pedestrian"/>
        <lane  index="1" width="3.0" speed="13.89" endOffset="0.0" disallow="pedestrian tram rail_urban rail rail_electric rail_fast ship"/>
    </edge>
    <edge  id="120634988#1" type="highway.residential" numLanes="2" average_slopes="0.0" positive_climbs="0.0" negative_climbs="0.0" speed="13.888" priority="4" length="93.4175872803" shape="196.06,510.68,0.0 223.76,520.99,0.0 253.57,532.74,0.0 271.45,537.63,0.0 284.71,538.4,0.0" spreadType="center" endOffset="0.0" from="252164727" to="cluster_252165080_252165087">
        <lane  index="0" width="2.0" speed="0.8" endOffset="0.0" allow="pedestrian"/>
        <lane  index="1" width="3.0" speed="13.89" endOffset="0.0" disallow="pedestrian tram rail_urban rail rail_electric rail_fast ship"/>
    </edge>
    <edge  id="120634988#3" type="highway.residential" numLanes="2" average_slopes="0.0" positive_climbs="0.0" negative_climbs="0.0" speed="13.888" priority="4" length="41.4564628601" shape="302.16,536.4,0.0 341.94,524.73,0.0" spreadType="center" endOffset="0.0" from="cluster_252165080_252165087" to="252165083">
        <lane  index="0" width="2.0" speed="0.8" endOffset="0.0" allow="pedestrian"/>
        <lane  index="1" width="3.0" speed="13.89" endOffset="0.0" disallow="pedestrian tram rail_urban rail rail_electric rail_fast ship"/>
    </edge>
    <edge  id="120634989" type="highway.residential" numLanes="2" average_slopes="0.0" positive_climbs="0.0" negative_climbs="0.0" speed="13.888" priority="4" length="93.5955657959" shape="542.91,330.32,0.0 456.59,366.5,0.0" spreadType="right" endOffset="0.0" from="cluster_1352203847_252164873" to="1352203848">
        <lane  index="0" width="2.0" speed="0.8" endOffset="0.0" allow="pedestrian"/>
        <lane  index="1" width="3.0" speed="13.89" endOffset="0.0" disallow="pedestrian tram rail_urban rail rail_electric rail_fast ship"/>
    </edge>
    <edge  id="132106761#0" type="highway.secondary" numLanes="3" average_slopes="0.0" positive_climbs="0.0" negative_climbs="0.0" speed="13.888" priority="7" length="121.343025208" shape="673.8,583.67,0.0 668.35,586.21,0.0 564.84,637.07,0.0" spreadType="right" endOffset="0.0" from="252164591" to="252164590">
        <lane  index="0" width="0.9" speed="0.8" endOffset="0.0" allow="pedestrian"/>
        <lane  index="1" width="3.0" speed="27.78" endOffset="0.0" disallow="pedestrian tram rail_urban rail rail_electric rail_fast ship"/>
        <lane  index="2" width="3.0" speed="27.78" endOffset="0.0" disallow="pedestrian tram rail_urban rail rail_electric rail_fast ship"/>
    </edge>
    <edge  id="132106761#1" type="highway.secondary" numLanes="3" average_slopes="0.0" positive_climbs="0.0" negative_climbs="0.0" speed="13.888" priority="7" length="100.247398376" shape="559.21,639.85,0.0 540.65,649.12,0.0 501.08,668.36,0.0 469.17,683.92,0.0" spreadType="right" endOffset="0.0" from="252164590" to="877225174">
        <lane  index="0" width="0.9" speed="0.8" endOffset="0.0" allow="pedestrian"/>
        <lane  index="1" width="3.0" speed="27.78" endOffset="0.0" disallow="pedestrian tram rail_urban rail rail_electric rail_fast ship"/>
        <lane  index="2" width="3.0" speed="27.78" endOffset="0.0" disallow="pedestrian tram rail_urban rail rail_electric rail_fast ship"/>
    </edge>
    <edge  id="132106761#2" type="highway.secondary" numLanes="3" average_slopes="0.0" positive_climbs="0.0" negative_climbs="0.0" speed="13.888" priority="7" length="3.90988111496" shape="464.32,686.25,0.0 460.78,687.91,0.0" spreadType="right" endOffset="0.0" from="877225174" to="252164783">
        <lane  index="0" width="0.9" speed="0.8" endOffset="0.0" allow="pedestrian"/>
        <lane  index="1" width="3.0" speed="27.78" endOffset="0.0" disallow="pedestrian tram rail_urban rail rail_electric rail_fast ship"/>
        <lane  index="2" width="3.0" speed="27.78" endOffset="0.0" disallow="pedestrian tram rail_urban rail rail_electric rail_fast ship"/>
    </edge>
    <edge  id="132106763#0" type="highway.tertiary" numLanes="2" average_slopes="0.0" positive_climbs="0.0" negative_climbs="0.0" speed="13.888" priority="6" length="1.49837601185" shape="675.2,579.71,0.0 674.55,578.36,0.0" spreadType="right" endOffset="0.0" from="252164591" to="877225158">
        <lane  index="0" width="0.9" speed="0.8" endOffset="0.0" allow="pedestrian"/>
        <lane  index="1" width="3.0" speed="13.89" endOffset="0.0" disallow="pedestrian tram rail_urban rail rail_electric rail_fast ship"/>
    </edge>